          37
  Built with Packmol                                             
  N           -0.443767       -0.471812        1.745205
  C            0.693510        0.104360        1.026899
  C            0.252325        0.999585       -0.146245
  C           -0.573823        0.306802       -1.244857
  C            0.172762       -0.788129       -1.957711
  O            0.408222       -0.687945       -3.151027
  O            0.546344       -1.903284       -1.303739
  H           -0.087472       -1.004114        2.571270
  H           -1.081184        0.285863        2.081386
  H            1.280979        0.732860        1.731174
  H            1.368045       -0.703734        0.677139
  H            1.158667        1.443130       -0.611175
  H           -0.355788        1.834342        0.265274
  H           -1.517364       -0.100802       -0.829235
  H           -0.852734        1.086771       -1.985872
  H           -0.968720       -1.133893        1.131516
  O            3.155167       -2.046808        3.080320
  H            3.255943       -1.108417        3.380116
  H            3.871744       -2.537554        3.556028
  O            3.465267       -1.281881        0.269356
  H            4.361355       -1.664047        0.091627
  H            3.646632       -0.445231        0.767087
  O            3.914846        1.670223       -3.720293
  H            3.571532        0.753192       -3.867940
  H            3.143075        2.167272       -3.348912
  O            3.182393       -4.145171        1.369981
  H            2.451767       -3.944906        2.007705
  H            3.766169       -3.345949        1.402570
  O            3.459914       -3.303075       -1.906955
  H            3.650780       -3.612122       -0.985722
  H            2.472517       -3.239937       -1.947888
  O            4.209579        0.980645       -1.640298
  H            3.288884        1.204787       -1.352735
  H            4.669684        0.706074       -0.807516
  O            3.363633        1.740669        2.198741
  H            4.205001        1.227506        2.101913
  H            2.966720        1.409303        3.043294
