 xtb: 6.7.1 (edcfbbe)
          06092518063D

 37 29  0     0  0            999 V2000
   -0.1258   -0.2243    1.2424 N   0  0  0  0  0  0  0  0  0  0  0  0
    0.3107    0.8908    0.3831 C   0  0  0  0  0  0  0  0  0  0  0  0
   -0.6496    1.1137   -0.7877 C   0  0  0  0  0  0  0  0  0  0  0  0
   -1.1601   -0.1735   -1.4558 C   0  0  0  0  0  0  0  0  0  0  0  0
   -0.0559   -1.2028   -1.7793 C   0  0  0  0  0  0  0  0  0  0  0  0
    0.3333   -1.3209   -2.9495 O   0  0  0  0  0  0  0  0  0  0  0  0
    0.3645   -1.8907   -0.8044 O   0  0  0  0  0  0  0  0  0  0  0  0
    0.4778   -0.2995    2.1096 H   0  0  0  0  0  0  0  0  0  0  0  0
   -1.0990   -0.1088    1.5240 H   0  0  0  0  0  0  0  0  0  0  0  0
    0.3763    1.8040    0.9740 H   0  0  0  0  0  0  0  0  0  0  0  0
    1.3050    0.6554    0.0008 H   0  0  0  0  0  0  0  0  0  0  0  0
   -0.1335    1.7148   -1.5366 H   0  0  0  0  0  0  0  0  0  0  0  0
   -1.5235    1.6777   -0.4543 H   0  0  0  0  0  0  0  0  0  0  0  0
   -1.8914   -0.6754   -0.8187 H   0  0  0  0  0  0  0  0  0  0  0  0
   -1.6476    0.0829   -2.3977 H   0  0  0  0  0  0  0  0  0  0  0  0
   -0.0180   -1.0908    0.6599 H   0  0  0  0  0  0  0  0  0  0  0  0
    1.3588   -0.4370    3.4736 O   0  0  0  0  0  0  0  0  0  0  0  0
    2.2326   -0.7590    3.1460 H   0  0  0  0  0  0  0  0  0  0  0  0
    1.0528   -1.0963    4.1025 H   0  0  0  0  0  0  0  0  0  0  0  0
    3.6267   -1.3930    2.4355 O   0  0  0  0  0  0  0  0  0  0  0  0
    3.3796   -1.7465    1.5592 H   0  0  0  0  0  0  0  0  0  0  0  0
    4.2512   -0.6736    2.2534 H   0  0  0  0  0  0  0  0  0  0  0  0
    4.8547    1.5325   -2.7089 O   0  0  0  0  0  0  0  0  0  0  0  0
    4.3395    1.2211   -3.4579 H   0  0  0  0  0  0  0  0  0  0  0  0
    4.3747    1.2208   -1.9141 H   0  0  0  0  0  0  0  0  0  0  0  0
    4.2692   -4.5020   -1.0232 O   0  0  0  0  0  0  0  0  0  0  0  0
    3.9778   -5.3280   -0.6237 H   0  0  0  0  0  0  0  0  0  0  0  0
    5.2291   -4.5382   -1.0894 H   0  0  0  0  0  0  0  0  0  0  0  0
    2.9792   -2.1478   -0.1467 O   0  0  0  0  0  0  0  0  0  0  0  0
    3.3975   -2.9264   -0.5478 H   0  0  0  0  0  0  0  0  0  0  0  0
    2.0424   -2.1646   -0.4324 H   0  0  0  0  0  0  0  0  0  0  0  0
    3.5563    0.5330   -0.4749 O   0  0  0  0  0  0  0  0  0  0  0  0
    4.1281    0.6966    0.2965 H   0  0  0  0  0  0  0  0  0  0  0  0
    3.4214   -0.4337   -0.4806 H   0  0  0  0  0  0  0  0  0  0  0  0
    5.2936    0.8186    1.7296 O   0  0  0  0  0  0  0  0  0  0  0  0
    6.2121    0.7106    1.4637 H   0  0  0  0  0  0  0  0  0  0  0  0
    5.2319    1.6449    2.2199 H   0  0  0  0  0  0  0  0  0  0  0  0
  1  2  1  0  0  0  0
  2  3  1  0  0  0  0
  3  4  1  0  0  0  0
  4  5  1  0  0  0  0
  5  6  2  0  0  0  0
  5  7  4  0  0  0  0
  1  8  1  0  0  0  0
  1  9  1  0  0  0  0
  2 10  1  0  0  0  0
  2 11  1  0  0  0  0
  3 12  1  0  0  0  0
  3 13  1  0  0  0  0
  4 14  1  0  0  0  0
  4 15  1  0  0  0  0
  1 16  1  0  0  0  0
 17 18  1  0  0  0  0
 17 19  1  0  0  0  0
 20 21  1  0  0  0  0
 20 22  1  0  0  0  0
 23 24  1  0  0  0  0
 23 25  1  0  0  0  0
 26 27  1  0  0  0  0
 26 28  1  0  0  0  0
 29 30  1  0  0  0  0
 29 31  1  0  0  0  0
 32 33  1  0  0  0  0
 32 34  1  0  0  0  0
 35 36  1  0  0  0  0
 35 37  1  0  0  0  0
M  END
