          37
  Built with Packmol                                             
  N            0.058148       -0.927583        1.469607
  C            0.211959        0.510020        1.257389
  C           -0.420296        1.026601       -0.053995
  C            0.232909        0.510995       -1.351786
  C           -0.125253       -0.896436       -1.755618
  O            0.432585       -1.420882       -2.861979
  O           -0.947959       -1.551103       -1.137172
  H            0.428548       -1.166868        2.416841
  H           -0.951876       -1.193831        1.431538
  H           -0.278739        1.044785        2.100148
  H            1.291996        0.772629        1.278823
  H           -0.263312        2.127518       -0.038280
  H           -1.516957        0.851348       -0.073370
  H            1.334639        0.617682       -1.263614
  H           -0.104560        1.158543       -2.189480
  H            0.618166       -1.463418        0.770947
  O            0.145631       -1.082866        4.969352
  H           -0.792193       -1.097867        4.651746
  H            0.165671       -0.363656        5.649755
  O           -2.404364       -2.833425        4.250608
  H           -2.926042       -2.046319        3.952401
  H           -2.616195       -2.920969        5.213976
  O           -1.984615        1.390918        4.296641
  H           -1.436371        1.002215        5.023931
  H           -1.949413        0.716868        3.572051
  O            0.234827       -3.256167        4.700230
  H            0.839993       -4.039964        4.707092
  H           -0.498642       -3.503616        5.317810
  O           -1.460549        3.282443        5.333689
  H           -0.531794        2.959149        5.449904
  H           -1.381519        4.043397        4.704948
  O            2.261221       -0.144082        4.153187
  H            3.025953       -0.540978        4.641314
  H            1.932418        0.574841        4.749552
  O            1.886409        3.350276        4.479435
  H            1.661698        3.000832        5.378326
  H            2.735728        2.899258        4.243104
