          37
  Built with Packmol                                             
  N            0.058148       -0.927583        1.469607
  C            0.211959        0.510020        1.257389
  C           -0.420296        1.026601       -0.053995
  C            0.232909        0.510995       -1.351786
  C           -0.125253       -0.896436       -1.755618
  O            0.432585       -1.420882       -2.861979
  O           -0.947959       -1.551103       -1.137172
  H            0.428548       -1.166868        2.416841
  H           -0.951876       -1.193831        1.431538
  H           -0.278739        1.044785        2.100148
  H            1.291996        0.772629        1.278823
  H           -0.263312        2.127518       -0.038280
  H           -1.516957        0.851348       -0.073370
  H            1.334639        0.617682       -1.263614
  H           -0.104560        1.158543       -2.189480
  H            0.618166       -1.463418        0.770947
  O            2.580215        3.241560       -2.956183
  H            2.023439        3.955919       -2.555806
  H            3.247067        3.025383       -2.256762
  O            2.140286        3.617027        0.018559
  H            2.703461        4.258860       -0.482933
  H            2.433704        3.712034        0.959565
  O            1.075878        2.293333       -5.248773
  H            1.136053        3.281025       -5.286918
  H            1.792222        2.025238       -4.619814
  O           -2.696837        2.008997       -1.629796
  H           -3.586006        1.577117       -1.570889
  H           -2.258514        1.570138       -2.401735
  O           -2.180115        3.674754       -3.226324
  H           -2.556108        4.065167       -2.397580
  H           -2.951395        3.236179       -3.666089
  O           -1.554767        1.944760       -6.546066
  H           -0.576886        1.804965       -6.615471
  H           -1.843300        1.327236       -5.827716
  O           -0.533998        4.285626       -1.309031
  H           -0.535648        3.421427       -1.792527
  H            0.422844        4.468730       -1.131438
