          37
  Built with Packmol                                             
  N            0.058148       -0.927583        1.469607
  C            0.211959        0.510020        1.257389
  C           -0.420296        1.026601       -0.053995
  C            0.232909        0.510995       -1.351786
  C           -0.125253       -0.896436       -1.755618
  O            0.432585       -1.420882       -2.861979
  O           -0.947959       -1.551103       -1.137172
  H            0.428548       -1.166868        2.416841
  H           -0.951876       -1.193831        1.431538
  H           -0.278739        1.044785        2.100148
  H            1.291996        0.772629        1.278823
  H           -0.263312        2.127518       -0.038280
  H           -1.516957        0.851348       -0.073370
  H            1.334639        0.617682       -1.263614
  H           -0.104560        1.158543       -2.189480
  H            0.618166       -1.463418        0.770947
  O            0.898204       -3.777100       -4.056706
  H            0.463060       -4.270794       -4.796657
  H            1.537492       -4.425733       -3.667862
  O           -1.913992       -4.544698        0.822328
  H           -1.605417       -5.394925        1.225449
  H           -2.649342       -4.242662        1.412791
  O           -0.716338       -5.131358       -0.941726
  H           -0.947400       -4.184631       -1.117594
  H           -0.003853       -5.089453       -0.255270
  O            0.361929       -4.839864        2.298386
  H            1.057372       -4.644236        2.975659
  H           -0.263654       -4.074467        2.356918
  O           -1.143883       -4.113057       -3.304018
  H           -1.561592       -3.737397       -4.119499
  H           -1.102314       -5.087887       -3.473104
  O           -1.656512       -3.894977        4.149863
  H           -1.638844       -4.851113        3.892759
  H           -2.104068       -3.442318        3.391307
  O            0.090773        2.315488       -5.230645
  H            0.333049        2.665417       -4.336518
  H            0.825882        2.615965       -5.822203
