          37
  Built with Packmol                                             
  N            0.058148       -0.927583        1.469607
  C            0.211959        0.510020        1.257389
  C           -0.420296        1.026601       -0.053995
  C            0.232909        0.510995       -1.351786
  C           -0.125253       -0.896436       -1.755618
  O            0.432585       -1.420882       -2.861979
  O           -0.947959       -1.551103       -1.137172
  H            0.428548       -1.166868        2.416841
  H           -0.951876       -1.193831        1.431538
  H           -0.278739        1.044785        2.100148
  H            1.291996        0.772629        1.278823
  H           -0.263312        2.127518       -0.038280
  H           -1.516957        0.851348       -0.073370
  H            1.334639        0.617682       -1.263614
  H           -0.104560        1.158543       -2.189480
  H            0.618166       -1.463418        0.770947
  O           -0.312184       -4.289697       -3.475733
  H           -1.204937       -4.716608       -3.438985
  H           -0.421073       -3.443264       -2.973430
  O           -1.556012       -4.871564       -0.493120
  H           -1.335038       -4.113824       -1.091125
  H           -0.739343       -5.431613       -0.490155
  O            1.906853       -3.853571       -2.609796
  H            1.718532       -3.059025       -2.049579
  H            2.871933       -4.029437       -2.474499
  O            1.589076       -3.808821        3.734927
  H            1.052432       -3.709273        2.908662
  H            0.946552       -3.641814        4.469696
  O           -2.809275       -3.429232       -2.663071
  H           -2.440137       -2.513508       -2.739224
  H           -3.308639       -3.566419       -3.507126
  O            1.033928       -4.207045       -0.052144
  H            1.536873       -4.802386       -0.663067
  H            1.730759       -3.660985        0.391542
  O           -1.425580       -3.917809        2.597240
  H           -2.261503       -4.438780        2.495098
  H           -1.591987       -3.332368        3.378381
