          37
  Built with Packmol                                             
  N            0.058148       -0.927583        1.469607
  C            0.211959        0.510020        1.257389
  C           -0.420296        1.026601       -0.053995
  C            0.232909        0.510995       -1.351786
  C           -0.125253       -0.896436       -1.755618
  O            0.432585       -1.420882       -2.861979
  O           -0.947959       -1.551103       -1.137172
  H            0.428548       -1.166868        2.416841
  H           -0.951876       -1.193831        1.431538
  H           -0.278739        1.044785        2.100148
  H            1.291996        0.772629        1.278823
  H           -0.263312        2.127518       -0.038280
  H           -1.516957        0.851348       -0.073370
  H            1.334639        0.617682       -1.263614
  H           -0.104560        1.158543       -2.189480
  H            0.618166       -1.463418        0.770947
  O            2.074579       -3.854746        0.443899
  H            1.610352       -4.696928        0.207608
  H            2.828273       -3.798945       -0.195981
  O           -1.274522       -3.757122        3.694770
  H           -1.194467       -2.821446        4.008955
  H           -0.756136       -4.285048        4.352937
  O            1.102916       -3.412448       -3.510259
  H            0.248185       -3.887446       -3.666533
  H            1.721878       -3.786445       -4.186739
  O            1.719178       -2.172588        6.424386
  H            2.347615       -2.203515        5.659715
  H            1.189723       -1.348795        6.277231
  O            3.226898       -3.684326       -2.537594
  H            2.624462       -4.429910       -2.289023
  H            2.776027       -2.874381       -2.189287
  O           -2.733857       -3.065677        1.048346
  H           -3.657070       -3.373625        1.231259
  H           -2.308389       -3.824441        0.575199
  O            0.137418       -4.014093       -1.473256
  H           -0.271006       -4.911080       -1.569251
  H           -0.335345       -3.607247       -0.704110
