          37
  Built with Packmol                                             
  N            0.058148       -0.927583        1.469607
  C            0.211959        0.510020        1.257389
  C           -0.420296        1.026601       -0.053995
  C            0.232909        0.510995       -1.351786
  C           -0.125253       -0.896436       -1.755618
  O            0.432585       -1.420882       -2.861979
  O           -0.947959       -1.551103       -1.137172
  H            0.428548       -1.166868        2.416841
  H           -0.951876       -1.193831        1.431538
  H           -0.278739        1.044785        2.100148
  H            1.291996        0.772629        1.278823
  H           -0.263312        2.127518       -0.038280
  H           -1.516957        0.851348       -0.073370
  H            1.334639        0.617682       -1.263614
  H           -0.104560        1.158543       -2.189480
  H            0.618166       -1.463418        0.770947
  O           -2.721490       -2.962143        3.949839
  H           -3.007428       -2.043611        4.184678
  H           -2.755495       -2.987254        2.960483
  O            0.127652       -4.505496       -1.142700
  H           -0.814158       -4.322074       -1.387570
  H            0.524574       -3.610296       -0.995448
  O           -3.284681       -1.040493       -2.814024
  H           -2.810789       -1.908134       -2.870910
  H           -2.675384       -0.395695       -3.254031
  O           -3.404066       -3.105125       -1.054505
  H           -3.693510       -3.033268       -0.110223
  H           -4.234043       -2.975795       -1.578933
  O           -3.058879        3.086629       -2.407295
  H           -3.358835        2.164521       -2.206412
  H           -3.049917        3.541736       -1.527858
  O           -3.137476        1.878709       -4.922541
  H           -2.153513        1.926618       -5.023196
  H           -3.337080        0.909183       -4.894428
  O            1.827667       -3.679886       -3.165436
  H            2.659125       -3.143263       -3.129029
  H            1.957228       -4.384818       -2.482137
