          37
  Built with Packmol                                             
  N            0.058148       -0.927583        1.469607
  C            0.211959        0.510020        1.257389
  C           -0.420296        1.026601       -0.053995
  C            0.232909        0.510995       -1.351786
  C           -0.125253       -0.896436       -1.755618
  O            0.432585       -1.420882       -2.861979
  O           -0.947959       -1.551103       -1.137172
  H            0.428548       -1.166868        2.416841
  H           -0.951876       -1.193831        1.431538
  H           -0.278739        1.044785        2.100148
  H            1.291996        0.772629        1.278823
  H           -0.263312        2.127518       -0.038280
  H           -1.516957        0.851348       -0.073370
  H            1.334639        0.617682       -1.263614
  H           -0.104560        1.158543       -2.189480
  H            0.618166       -1.463418        0.770947
  O           -0.081576       -4.507502       -2.427368
  H           -0.112254       -3.531286       -2.590687
  H           -0.198906       -4.912739       -3.323264
  O            2.351197       -3.812497        0.482688
  H            2.461543       -4.725321        0.850366
  H            3.119919       -3.304369        0.845298
  O            0.906840       -4.272333        2.332119
  H            0.790998       -3.365326        2.712290
  H            1.317988       -4.797495        3.064085
  O           -1.098302       -4.198284        3.448474
  H           -1.488893       -4.463586        2.578035
  H           -0.731787       -5.038780        3.822435
  O            1.936173       -3.813733       -1.823244
  H            2.053471       -4.784859       -1.977405
  H            2.529216       -3.383374       -2.489357
  O           -0.581358       -3.338815        5.535418
  H           -0.288624       -2.912069        6.379696
  H            0.255883       -3.481379        5.026187
  O           -3.247684       -3.442311        1.259431
  H           -2.436075       -2.886926        1.375405
  H           -2.989906       -4.120680        0.585651
