          37
  Built with Packmol                                             
  N            0.002605        0.268339        2.349498
  C            0.005610       -0.534268        1.127824
  C           -0.013605        0.360442       -0.117570
  C           -0.006580       -0.484114       -1.399583
  C            0.005309        0.346063       -2.655593
  O            0.015980        1.566588       -2.611145
  O            0.010136       -0.270580       -3.851920
  H            0.843830        0.889238        2.373417
  H           -0.867625        0.846216        2.397033
  H           -0.885896       -1.198618        1.124039
  H            0.917756       -1.170846        1.111005
  H            0.882890        1.016132       -0.103939
  H           -0.924881        0.997831       -0.099780
  H           -0.910028       -1.129127       -1.413513
  H            0.894287       -1.134110       -1.406828
  H            0.030211       -0.369186        3.177055
  O           -2.544834        0.507576       -4.934009
  H           -1.770762        0.065709       -5.365491
  H           -3.313520        0.287441       -5.518197
  O           -2.744630       -0.215581       -2.706712
  H           -2.120673       -0.793985       -3.213405
  H           -3.617157       -0.680116       -2.766015
  O            0.717701       -2.723086       -5.662141
  H            1.623889       -2.628061       -5.274322
  H            0.286555       -3.427401       -5.115637
  O           -2.114462        2.421233       -3.310383
  H           -2.833700        1.977627       -2.794125
  H           -2.536641        2.652424       -4.175789
  O           -1.855551       -2.131009       -5.410264
  H           -2.842362       -2.207324       -5.441757
  H           -1.537097       -2.732829       -6.129300
  O           -2.361248       -2.978512       -3.199900
  H           -2.777752       -2.704958       -2.344153
  H           -1.754815       -3.721814       -2.954229
  O           -1.647479        2.127235       -6.119104
  H           -0.940291        1.945492       -6.788033
  H           -2.495719        1.998195       -6.613523
