 xtb: 6.7.1 (edcfbbe)
          06092518043D

 37 29  0     0  0            999 V2000
   -0.2685   -1.7588    2.4300 N   0  0  0  0  0  0  0  0  0  0  0  0
   -0.5391   -1.3550    1.0391 C   0  0  0  0  0  0  0  0  0  0  0  0
    0.6170   -0.5421    0.4666 C   0  0  0  0  0  0  0  0  0  0  0  0
    0.3061   -0.0738   -0.9552 C   0  0  0  0  0  0  0  0  0  0  0  0
    0.1217   -1.2378   -1.9377 C   0  0  0  0  0  0  0  0  0  0  0  0
    1.0912   -1.9979   -2.1507 O   0  0  0  0  0  0  0  0  0  0  0  0
   -1.0004   -1.3596   -2.4906 O   0  0  0  0  0  0  0  0  0  0  0  0
    0.5865   -2.3632    2.4624 H   0  0  0  0  0  0  0  0  0  0  0  0
   -0.1225   -0.9387    3.0193 H   0  0  0  0  0  0  0  0  0  0  0  0
   -1.4586   -0.7696    0.9977 H   0  0  0  0  0  0  0  0  0  0  0  0
   -0.6864   -2.2510    0.4350 H   0  0  0  0  0  0  0  0  0  0  0  0
    1.5245   -1.1452    0.4444 H   0  0  0  0  0  0  0  0  0  0  0  0
    0.7977    0.3401    1.0826 H   0  0  0  0  0  0  0  0  0  0  0  0
   -0.6021    0.5304   -0.9725 H   0  0  0  0  0  0  0  0  0  0  0  0
    1.1363    0.5239   -1.3379 H   0  0  0  0  0  0  0  0  0  0  0  0
   -1.0883   -2.3092    2.8013 H   0  0  0  0  0  0  0  0  0  0  0  0
   -2.4620   -3.1634    3.1542 O   0  0  0  0  0  0  0  0  0  0  0  0
   -2.9280   -3.1436    2.2949 H   0  0  0  0  0  0  0  0  0  0  0  0
   -2.3319   -4.0908    3.3728 H   0  0  0  0  0  0  0  0  0  0  0  0
    1.9789   -3.3254    2.3299 O   0  0  0  0  0  0  0  0  0  0  0  0
    2.2413   -3.3558    1.3928 H   0  0  0  0  0  0  0  0  0  0  0  0
    2.7802   -3.1588    2.8341 H   0  0  0  0  0  0  0  0  0  0  0  0
   -1.4702   -2.9191   -4.7029 O   0  0  0  0  0  0  0  0  0  0  0  0
   -2.1631   -3.5311   -4.4320 H   0  0  0  0  0  0  0  0  0  0  0  0
   -1.3091   -2.3383   -3.9290 H   0  0  0  0  0  0  0  0  0  0  0  0
   -3.1857   -0.8688   -0.9219 O   0  0  0  0  0  0  0  0  0  0  0  0
   -2.4195   -1.0321   -1.5071 H   0  0  0  0  0  0  0  0  0  0  0  0
   -3.8733   -0.4941   -1.4808 H   0  0  0  0  0  0  0  0  0  0  0  0
    1.2628   -3.6129   -4.4472 O   0  0  0  0  0  0  0  0  0  0  0  0
    1.2808   -3.0598   -3.6437 H   0  0  0  0  0  0  0  0  0  0  0  0
    0.3648   -3.4872   -4.7972 H   0  0  0  0  0  0  0  0  0  0  0  0
   -3.5780   -3.1293    0.6535 O   0  0  0  0  0  0  0  0  0  0  0  0
   -4.4696   -3.4300    0.4578 H   0  0  0  0  0  0  0  0  0  0  0  0
   -3.4350   -2.3231    0.1239 H   0  0  0  0  0  0  0  0  0  0  0  0
    2.7814   -3.1684   -0.3164 O   0  0  0  0  0  0  0  0  0  0  0  0
    3.2675   -3.8581   -0.7769 H   0  0  0  0  0  0  0  0  0  0  0  0
    2.2084   -2.7546   -0.9882 H   0  0  0  0  0  0  0  0  0  0  0  0
  1  2  1  0  0  0  0
  2  3  1  0  0  0  0
  3  4  1  0  0  0  0
  4  5  1  0  0  0  0
  5  6  4  0  0  0  0
  5  7  4  0  0  0  0
  1  8  1  0  0  0  0
  1  9  1  0  0  0  0
  2 10  1  0  0  0  0
  2 11  1  0  0  0  0
  3 12  1  0  0  0  0
  3 13  1  0  0  0  0
  4 14  1  0  0  0  0
  4 15  1  0  0  0  0
  1 16  1  0  0  0  0
 17 18  1  0  0  0  0
 17 19  1  0  0  0  0
 20 21  1  0  0  0  0
 20 22  1  0  0  0  0
 23 24  1  0  0  0  0
 23 25  1  0  0  0  0
 26 27  1  0  0  0  0
 26 28  1  0  0  0  0
 29 30  1  0  0  0  0
 29 31  1  0  0  0  0
 32 33  1  0  0  0  0
 32 34  1  0  0  0  0
 35 36  1  0  0  0  0
 35 37  1  0  0  0  0
M  END
