 xtb: 6.7.1 (edcfbbe)
          06092518043D

 37 29  0     0  0            999 V2000
   -1.1697    0.6826    0.1695 N   0  0  0  0  0  0  0  0  0  0  0  0
   -0.9602   -0.0204   -1.1094 C   0  0  0  0  0  0  0  0  0  0  0  0
   -0.1753    0.8296   -2.1006 C   0  0  0  0  0  0  0  0  0  0  0  0
    0.0325    0.0743   -3.4164 C   0  0  0  0  0  0  0  0  0  0  0  0
    1.0142   -1.0945   -3.2216 C   0  0  0  0  0  0  0  0  0  0  0  0
    2.2344   -0.8177   -3.1869 O   0  0  0  0  0  0  0  0  0  0  0  0
    0.5463   -2.2508   -3.0929 O   0  0  0  0  0  0  0  0  0  0  0  0
   -0.2774    0.8763    0.6242 H   0  0  0  0  0  0  0  0  0  0  0  0
   -1.6682    1.5949    0.0117 H   0  0  0  0  0  0  0  0  0  0  0  0
   -1.9339   -0.2645   -1.5334 H   0  0  0  0  0  0  0  0  0  0  0  0
   -0.4281   -0.9565   -0.9322 H   0  0  0  0  0  0  0  0  0  0  0  0
    0.8090    1.0783   -1.6979 H   0  0  0  0  0  0  0  0  0  0  0  0
   -0.7164    1.7536   -2.3071 H   0  0  0  0  0  0  0  0  0  0  0  0
   -0.9144   -0.3194   -3.7873 H   0  0  0  0  0  0  0  0  0  0  0  0
    0.4720    0.7383   -4.1620 H   0  0  0  0  0  0  0  0  0  0  0  0
   -1.7542    0.0742    0.7959 H   0  0  0  0  0  0  0  0  0  0  0  0
   -2.7809   -1.0702    1.4848 O   0  0  0  0  0  0  0  0  0  0  0  0
   -3.5507   -0.8077    1.9980 H   0  0  0  0  0  0  0  0  0  0  0  0
   -3.1160   -1.4982    0.6764 H   0  0  0  0  0  0  0  0  0  0  0  0
    4.0548   -2.5189   -2.0354 O   0  0  0  0  0  0  0  0  0  0  0  0
    3.8536   -3.3692   -2.4386 H   0  0  0  0  0  0  0  0  0  0  0  0
    3.4305   -1.8824   -2.4450 H   0  0  0  0  0  0  0  0  0  0  0  0
   -1.9896    3.7108   -2.9357 O   0  0  0  0  0  0  0  0  0  0  0  0
   -1.3994    4.4108   -3.2283 H   0  0  0  0  0  0  0  0  0  0  0  0
   -2.6571    3.5960   -3.6193 H   0  0  0  0  0  0  0  0  0  0  0  0
   -2.4468    3.0619   -0.2516 O   0  0  0  0  0  0  0  0  0  0  0  0
   -2.2663    3.3547   -1.1600 H   0  0  0  0  0  0  0  0  0  0  0  0
   -3.3997    3.1033   -0.1291 H   0  0  0  0  0  0  0  0  0  0  0  0
    3.1779    4.9643   -3.5540 O   0  0  0  0  0  0  0  0  0  0  0  0
    3.5941    4.1602   -3.8775 H   0  0  0  0  0  0  0  0  0  0  0  0
    3.2161    4.9308   -2.5930 H   0  0  0  0  0  0  0  0  0  0  0  0
   -3.7300   -1.9299   -0.9734 O   0  0  0  0  0  0  0  0  0  0  0  0
   -4.6182   -2.1011   -1.2970 H   0  0  0  0  0  0  0  0  0  0  0  0
   -3.1193   -2.2840   -1.6440 H   0  0  0  0  0  0  0  0  0  0  0  0
   -2.0837   -2.8448   -3.0076 O   0  0  0  0  0  0  0  0  0  0  0  0
   -2.1278   -3.7537   -3.3177 H   0  0  0  0  0  0  0  0  0  0  0  0
   -1.1277   -2.6131   -3.0124 H   0  0  0  0  0  0  0  0  0  0  0  0
  1  2  1  0  0  0  0
  2  3  1  0  0  0  0
  3  4  1  0  0  0  0
  4  5  1  0  0  0  0
  5  6  4  0  0  0  0
  5  7  4  0  0  0  0
  1  8  1  0  0  0  0
  1  9  1  0  0  0  0
  2 10  1  0  0  0  0
  2 11  1  0  0  0  0
  3 12  1  0  0  0  0
  3 13  1  0  0  0  0
  4 14  1  0  0  0  0
  4 15  1  0  0  0  0
  1 16  1  0  0  0  0
 17 18  1  0  0  0  0
 17 19  1  0  0  0  0
 20 21  1  0  0  0  0
 20 22  1  0  0  0  0
 23 24  1  0  0  0  0
 23 25  1  0  0  0  0
 26 27  1  0  0  0  0
 26 28  1  0  0  0  0
 29 30  1  0  0  0  0
 29 31  1  0  0  0  0
 32 33  1  0  0  0  0
 32 34  1  0  0  0  0
 35 36  1  0  0  0  0
 35 37  1  0  0  0  0
M  END
