          34
  Built with Packmol                                             
  H            1.420531       -0.693439       -0.457594
  C            0.315625       -0.640915       -0.572756
  H            0.379447        0.341256       -2.375102
  H           -0.020204       -1.577267       -1.069783
  N           -0.042833        0.489322       -1.430827
  H           -0.104344       -1.525775        1.342275
  C           -0.356072       -0.581772        0.809877
  O           -0.155039        1.845644        1.277794
  C            0.099005        0.578296        1.654298
  H            0.334594        1.383914       -1.050468
  O            0.669992        0.373338        2.712012
  H           -1.081518        0.548347       -1.533033
  H           -1.459185       -0.540948        0.693308
  O            1.396477       -1.914786        4.323304
  H            2.361834       -2.030448        4.511240
  H            0.950577       -2.595602        4.887464
  O           -1.931498        1.396067        4.893876
  H           -1.109469        1.946439        4.938260
  H           -1.816376        0.720113        5.608330
  O            1.771355        1.212913        6.324014
  H            0.808262        0.993980        6.395639
  H            2.116776        0.590392        5.635708
  O           -0.465188       -4.104486       -1.438069
  H           -1.403427       -4.413678       -1.506769
  H           -0.058074       -4.352414       -2.306056
  O            1.216780        3.187816       -3.390094
  H            2.037553        3.100478       -3.937191
  H            0.710513        3.923488       -3.817988
  O            3.396086       -0.648662        1.495207
  H            3.485530       -1.566091        1.133359
  H            3.783994       -0.066585        0.794259
  O            2.334738       -3.864743       -0.543464
  H            1.397741       -3.995389       -0.250925
  H            2.259489       -3.490712       -1.457275
