          34
  Built with Packmol                                             
  H            1.420531       -0.693439       -0.457594
  C            0.315625       -0.640915       -0.572756
  H            0.379447        0.341256       -2.375102
  H           -0.020204       -1.577267       -1.069783
  N           -0.042833        0.489322       -1.430827
  H           -0.104344       -1.525775        1.342275
  C           -0.356072       -0.581772        0.809877
  O           -0.155039        1.845644        1.277794
  C            0.099005        0.578296        1.654298
  H            0.334594        1.383914       -1.050468
  O            0.669992        0.373338        2.712012
  H           -1.081518        0.548347       -1.533033
  H           -1.459185       -0.540948        0.693308
  O            3.444389       -1.095908        1.750056
  H            3.401566       -2.085085        1.767543
  H            2.915661       -0.810731        2.537288
  O           -3.395340       -2.273117       -0.736263
  H           -3.544149       -2.238815       -1.714675
  H           -3.647271       -1.370859       -0.415211
  O           -3.526006        0.510324       -2.881836
  H           -3.440768       -0.468147       -3.008089
  H           -2.937401        0.902142       -3.575115
  O            3.540349        1.804864        1.612046
  H            3.974814        1.049887        2.083066
  H            2.950259        2.215558        2.293028
  O           -2.378696        2.868155       -2.766221
  H           -3.045798        2.830163       -2.035371
  H           -2.850553        3.321449       -3.509517
  O           -2.776684       -2.964645       -4.279800
  H           -2.313203       -2.091616       -4.339935
  H           -2.110200       -3.571660       -3.869989
  O           -3.445678        2.553779        1.012967
  H           -2.848971        3.342987        1.054238
  H           -3.476057        2.315687        0.052237
