          34
  Built with Packmol                                             
  H            1.420531       -0.693439       -0.457594
  C            0.315625       -0.640915       -0.572756
  H            0.379447        0.341256       -2.375102
  H           -0.020204       -1.577267       -1.069783
  N           -0.042833        0.489322       -1.430827
  H           -0.104344       -1.525775        1.342275
  C           -0.356072       -0.581772        0.809877
  O           -0.155039        1.845644        1.277794
  C            0.099005        0.578296        1.654298
  H            0.334594        1.383914       -1.050468
  O            0.669992        0.373338        2.712012
  H           -1.081518        0.548347       -1.533033
  H           -1.459185       -0.540948        0.693308
  O            0.988372        0.159505       -6.934733
  H            0.595854        1.028942       -6.668991
  H            0.408263       -0.516960       -6.502898
  O           -1.455995        1.590333       -5.102864
  H           -0.772262        0.931993       -4.820536
  H           -2.131643        1.572178       -4.379136
  O            1.099615       -4.060714       -3.695410
  H            0.254618       -4.219841       -4.186602
  H            1.029286       -3.125622       -3.377180
  O           -0.475693       -3.181452        3.690953
  H           -0.348399       -4.149478        3.856278
  H           -0.504108       -2.777088        4.594443
  O            2.728370        3.081008       -1.293466
  H            2.167269        3.893866       -1.364452
  H            2.716632        2.691172       -2.203687
  O            2.327952       -3.142276        3.300012
  H            2.653545       -2.706319        2.472642
  H            1.634105       -3.776920        2.989502
  O            1.746887        0.432294       -4.891877
  H            2.414651        0.025105       -4.284505
  H            1.366996        1.185739       -4.373595
