          34
  Built with Packmol                                             
  H            1.420531       -0.693439       -0.457594
  C            0.315625       -0.640915       -0.572756
  H            0.379447        0.341256       -2.375102
  H           -0.020204       -1.577267       -1.069783
  N           -0.042833        0.489322       -1.430827
  H           -0.104344       -1.525775        1.342275
  C           -0.356072       -0.581772        0.809877
  O           -0.155039        1.845644        1.277794
  C            0.099005        0.578296        1.654298
  H            0.334594        1.383914       -1.050468
  O            0.669992        0.373338        2.712012
  H           -1.081518        0.548347       -1.533033
  H           -1.459185       -0.540948        0.693308
  O            1.460427        0.292231        6.525899
  H            1.289411        1.192972        6.151692
  H            0.836489       -0.301833        6.037634
  O           -0.588802       -2.365884        4.287280
  H           -0.952287       -1.683366        4.905875
  H           -1.048601       -3.204229        4.544918
  O           -2.772088        3.037246       -0.848942
  H           -2.846550        3.536987        0.002718
  H           -3.399306        2.277810       -0.746629
  O           -3.822667       -0.690879        0.195282
  H           -3.701399       -0.527057        1.164337
  H           -3.923495        0.212196       -0.198295
  O           -3.253495        2.430313        1.856099
  H           -3.842520        1.679958        1.590343
  H           -2.425846        1.993416        2.179722
  O           -2.635404       -1.367710        3.511433
  H           -3.491557       -1.861712        3.451627
  H           -2.793390       -0.680779        4.206975
  O            0.752456       -4.044218        2.080019
  H            0.694722       -5.027700        1.979812
  H            0.656541       -3.887931        3.053151
