          34
  Built with Packmol                                             
  H            1.420531       -0.693439       -0.457594
  C            0.315625       -0.640915       -0.572756
  H            0.379447        0.341256       -2.375102
  H           -0.020204       -1.577267       -1.069783
  N           -0.042833        0.489322       -1.430827
  H           -0.104344       -1.525775        1.342275
  C           -0.356072       -0.581772        0.809877
  O           -0.155039        1.845644        1.277794
  C            0.099005        0.578296        1.654298
  H            0.334594        1.383914       -1.050468
  O            0.669992        0.373338        2.712012
  H           -1.081518        0.548347       -1.533033
  H           -1.459185       -0.540948        0.693308
  O            3.131497        0.031244        0.734838
  H            3.259061       -0.950750        0.729657
  H            3.939056        0.388699        0.286857
  O            2.411486       -0.187124        5.089354
  H            1.696918       -0.829073        5.329986
  H            1.956989        0.491710        4.529685
  O            2.287051       -1.531340        3.341096
  H            2.636942       -0.754749        2.836028
  H            1.394981       -1.702316        2.946646
  O            1.269944       -5.309673        0.956631
  H            1.879660       -5.167636        0.189374
  H            0.499571       -4.714629        0.774803
  O            1.361884       -2.950063        4.766562
  H            0.391148       -2.755159        4.783762
  H            1.423020       -3.875461        4.419412
  O            1.966122       -3.039902       -0.404102
  H            2.928702       -2.925652       -0.201625
  H            1.501462       -2.712423        0.406738
  O            2.879958       -3.366566        1.985850
  H            3.438515       -3.326528        2.802563
  H            2.009778       -3.721854        2.297572
