          34
  Built with Packmol                                             
  H            1.420531       -0.693439       -0.457594
  C            0.315625       -0.640915       -0.572756
  H            0.379447        0.341256       -2.375102
  H           -0.020204       -1.577267       -1.069783
  N           -0.042833        0.489322       -1.430827
  H           -0.104344       -1.525775        1.342275
  C           -0.356072       -0.581772        0.809877
  O           -0.155039        1.845644        1.277794
  C            0.099005        0.578296        1.654298
  H            0.334594        1.383914       -1.050468
  O            0.669992        0.373338        2.712012
  H           -1.081518        0.548347       -1.533033
  H           -1.459185       -0.540948        0.693308
  O           -0.734291        0.386842       -5.252622
  H           -0.757353       -0.471254       -5.746332
  H           -0.082689        0.235539       -4.522461
  O           -1.201272        4.065019       -4.255898
  H           -1.893910        3.608240       -4.796467
  H           -1.620561        4.186823       -3.367094
  O           -0.589767       -3.655084       -2.496964
  H            0.243802       -3.681582       -1.963043
  H           -0.301610       -3.877044       -3.418003
  O           -2.951598        1.467354       -2.236461
  H           -3.270055        0.815730       -1.562234
  H           -3.779562        1.845818       -2.626146
  O           -0.648664        2.299216       -2.792084
  H            0.162279        2.739688       -3.151204
  H           -1.111641        1.942190       -3.591333
  O           -3.286395       -0.182692       -3.906752
  H           -2.658697       -0.463182       -4.619445
  H           -3.022066       -0.719723       -3.117866
  O           -1.830346       -2.380293       -3.927316
  H           -2.318180       -3.237195       -4.018687
  H           -1.225831       -2.354147       -4.711211
