          34
  Built with Packmol                                             
  H            1.420531       -0.693439       -0.457594
  C            0.315625       -0.640915       -0.572756
  H            0.379447        0.341256       -2.375102
  H           -0.020204       -1.577267       -1.069783
  N           -0.042833        0.489322       -1.430827
  H           -0.104344       -1.525775        1.342275
  C           -0.356072       -0.581772        0.809877
  O           -0.155039        1.845644        1.277794
  C            0.099005        0.578296        1.654298
  H            0.334594        1.383914       -1.050468
  O            0.669992        0.373338        2.712012
  H           -1.081518        0.548347       -1.533033
  H           -1.459185       -0.540948        0.693308
  O           -2.089253        3.740971       -0.702127
  H           -1.677259        4.081858        0.131341
  H           -2.410885        2.834366       -0.467110
  O            1.520260        2.520398       -4.569483
  H            1.198935        2.254189       -5.467533
  H            1.438441        3.507217       -4.559158
  O           -1.291228        2.847717       -3.243594
  H           -1.143615        3.796257       -3.486688
  H           -0.714048        2.701679       -2.452299
  O           -2.854261       -2.736688       -2.616356
  H           -1.983466       -2.423740       -2.969044
  H           -2.650600       -3.606182       -2.188435
  O           -3.735626        3.111327       -2.241098
  H           -3.243814        2.270878       -2.421032
  H           -3.164497        3.820998       -2.629418
  O           -0.990471        2.164003       -5.308368
  H           -1.868682        1.791333       -5.573834
  H           -0.844524        2.921558       -5.929193
  O            1.190436        4.194837       -2.491209
  H            1.495245        3.532885       -1.820745
  H            0.368491        4.584212       -2.099537
