          34
  Built with Packmol                                             
  H            1.420531       -0.693439       -0.457594
  C            0.315625       -0.640915       -0.572756
  H            0.379447        0.341256       -2.375102
  H           -0.020204       -1.577267       -1.069783
  N           -0.042833        0.489322       -1.430827
  H           -0.104344       -1.525775        1.342275
  C           -0.356072       -0.581772        0.809877
  O           -0.155039        1.845644        1.277794
  C            0.099005        0.578296        1.654298
  H            0.334594        1.383914       -1.050468
  O            0.669992        0.373338        2.712012
  H           -1.081518        0.548347       -1.533033
  H           -1.459185       -0.540948        0.693308
  O            0.095204       -3.982470       -2.542442
  H            0.697126       -3.221419       -2.344700
  H            0.367062       -4.686802       -1.901643
  O           -1.873009       -3.468500        3.733023
  H           -2.110514       -3.846602        2.849145
  H           -2.238424       -2.548294        3.715530
  O            2.919479       -3.575170       -0.974781
  H            2.492728       -4.237731       -1.574369
  H            2.535969       -2.705603       -1.252965
  O           -2.488538       -0.926607       -4.906225
  H           -2.719106       -1.351447       -4.041956
  H           -1.871486       -1.567595       -5.340959
  O            0.099147       -3.729939        2.808648
  H            0.164055       -3.810994        1.823850
  H            0.529316       -4.552248        3.154156
  O           -1.454922       -3.142111       -3.862415
  H           -1.282910       -3.695177       -4.665622
  H           -1.972036       -3.733820       -3.259848
  O           -2.742861       -3.859584       -0.001478
  H           -3.338599       -3.102271        0.226960
  H           -1.877782       -3.434816       -0.229128
