 xtb: 6.7.1 (edcfbbe)
          06092517583D

 34 26  0     0  0            999 V2000
    1.4138   -0.6955   -0.3378 H   0  0  0  0  0  0  0  0  0  0  0  0
    0.3555   -0.8797   -0.5314 C   0  0  0  0  0  0  0  0  0  0  0  0
    0.6327   -0.3581   -2.5386 H   0  0  0  0  0  0  0  0  0  0  0  0
    0.2104   -1.9504   -0.6796 H   0  0  0  0  0  0  0  0  0  0  0  0
   -0.0363   -0.1489   -1.7477 N   0  0  0  0  0  0  0  0  0  0  0  0
   -0.1982   -0.9204    1.5686 H   0  0  0  0  0  0  0  0  0  0  0  0
   -0.4640   -0.3877    0.6563 C   0  0  0  0  0  0  0  0  0  0  0  0
   -0.1165    1.8920   -0.0412 O   0  0  0  0  0  0  0  0  0  0  0  0
   -0.2824    1.1295    0.9432 C   0  0  0  0  0  0  0  0  0  0  0  0
   -0.0208    0.8533   -1.4633 H   0  0  0  0  0  0  0  0  0  0  0  0
   -0.3391    1.4931    2.1328 O   0  0  0  0  0  0  0  0  0  0  0  0
   -1.0053   -0.3933   -2.0372 H   0  0  0  0  0  0  0  0  0  0  0  0
   -1.5289   -0.5457    0.4729 H   0  0  0  0  0  0  0  0  0  0  0  0
   -2.3508   -0.0879   -5.4298 O   0  0  0  0  0  0  0  0  0  0  0  0
   -3.1279   -0.2613   -5.9711 H   0  0  0  0  0  0  0  0  0  0  0  0
   -2.1005    0.8313   -5.5746 H   0  0  0  0  0  0  0  0  0  0  0  0
    0.3094    4.5951   -4.6434 O   0  0  0  0  0  0  0  0  0  0  0  0
    0.0004    4.8199   -3.7605 H   0  0  0  0  0  0  0  0  0  0  0  0
    1.1298    4.1027   -4.5344 H   0  0  0  0  0  0  0  0  0  0  0  0
    0.0118   -4.3207   -4.3465 O   0  0  0  0  0  0  0  0  0  0  0  0
   -0.8680   -4.5438   -4.0285 H   0  0  0  0  0  0  0  0  0  0  0  0
   -0.0795   -3.4899   -4.8492 H   0  0  0  0  0  0  0  0  0  0  0  0
   -2.6210   -0.6139   -2.6766 O   0  0  0  0  0  0  0  0  0  0  0  0
   -3.3126   -0.0162   -2.3825 H   0  0  0  0  0  0  0  0  0  0  0  0
   -2.5316   -0.4865   -3.6390 H   0  0  0  0  0  0  0  0  0  0  0  0
   -0.1638   -1.8375   -5.6481 O   0  0  0  0  0  0  0  0  0  0  0  0
    0.1136   -1.7453   -6.5641 H   0  0  0  0  0  0  0  0  0  0  0  0
   -0.9474   -1.2697   -5.5317 H   0  0  0  0  0  0  0  0  0  0  0  0
    1.8053   -3.4420   -2.4686 O   0  0  0  0  0  0  0  0  0  0  0  0
    1.2007   -3.8694   -3.1118 H   0  0  0  0  0  0  0  0  0  0  0  0
    2.5715   -4.0145   -2.3907 H   0  0  0  0  0  0  0  0  0  0  0  0
    1.6235   -0.9951   -3.6836 O   0  0  0  0  0  0  0  0  0  0  0  0
    1.0381   -1.2621   -4.4182 H   0  0  0  0  0  0  0  0  0  0  0  0
    1.8413   -1.8324   -3.2280 H   0  0  0  0  0  0  0  0  0  0  0  0
  1  2  1  0  0  0  0
  2  4  1  0  0  0  0
  2  5  1  0  0  0  0
  3  5  1  0  0  0  0
  2  7  1  0  0  0  0
  6  7  1  0  0  0  0
  7  9  1  0  0  0  0
  8  9  4  0  0  0  0
  5 10  1  0  0  0  0
  9 11  2  0  0  0  0
  5 12  1  0  0  0  0
  7 13  1  0  0  0  0
 14 15  1  0  0  0  0
 14 16  1  0  0  0  0
 17 18  1  0  0  0  0
 17 19  1  0  0  0  0
 20 21  1  0  0  0  0
 20 22  1  0  0  0  0
 23 24  1  0  0  0  0
 23 25  1  0  0  0  0
 26 27  1  0  0  0  0
 26 28  1  0  0  0  0
 29 30  1  0  0  0  0
 29 31  1  0  0  0  0
 32 33  1  0  0  0  0
 32 34  1  0  0  0  0
M  END
