
 OpenBabel05072518203D

 13 12  0  0  0  0  0  0  0  0999 V2000
   -0.2711    0.2089   -1.4524 C   0  0  0  0  0  0  0  0  0  0  0  0
   -1.1955    0.9249   -0.5025 C   0  0  0  0  0  0  0  0  0  0  0  0
   -2.5021    1.0298   -0.8095 O   0  0  0  0  0  0  0  0  0  0  0  0
   -0.7843    1.4121    0.5397 O   0  0  0  0  0  0  0  0  0  0  0  0
    1.1859    0.1723   -0.9640 C   0  0  0  0  0  0  0  0  0  0  0  0
    2.0398   -0.5323   -1.9198 N   0  0  0  0  0  0  0  0  0  0  0  0
   -0.3129    0.7243   -2.4360 H   0  0  0  0  0  0  0  0  0  0  0  0
   -0.6389   -0.8320   -1.5800 H   0  0  0  0  0  0  0  0  0  0  0  0
    1.2352   -0.3449    0.0203 H   0  0  0  0  0  0  0  0  0  0  0  0
    1.5614    1.2123   -0.8363 H   0  0  0  0  0  0  0  0  0  0  0  0
    1.7133   -1.5193   -2.0343 H   0  0  0  0  0  0  0  0  0  0  0  0
    2.0220   -0.0451   -2.8452 H   0  0  0  0  0  0  0  0  0  0  0  0
    3.0218   -0.5404   -1.5607 H   0  0  0  0  0  0  0  0  0  0  0  0
  1  2  1  0  0  0  0
  1  5  1  0  0  0  0
  1  7  1  0  0  0  0
  1  8  1  0  0  0  0
  2  3  1  0  0  0  0
  2  4  2  0  0  0  0
  5  6  1  0  0  0  0
  5  9  1  0  0  0  0
  5 10  1  0  0  0  0
  6 11  1  0  0  0  0
  6 12  1  0  0  0  0
 13  6  1  0  0  0  0
M  END
