13

C         -0.51430        0.60220       -2.52510
C         -1.05520       -0.10250       -1.30610
O         -2.14580        0.39460       -0.69290
O         -0.54400       -1.12490       -0.87680
C          0.73760       -0.04320       -3.14880
N          1.90870        0.05160       -2.27300
H         -0.28340        1.65760       -2.26500
H         -1.32140        0.60360       -3.28870
H          0.96510        0.49600       -4.09520
H          0.53280       -1.10640       -3.40450
H          2.11240        1.05390       -2.05460
H          1.76390       -0.47700       -1.38490
H          2.73450       -0.35720       -2.76700
