
 OpenBabel05082512473D

 13 12  0  0  0  0  0  0  0  0999 V2000
   -0.5143    0.6022   -2.5251 C   0  0  0  0  0  0  0  0  0  0  0  0
   -1.0552   -0.1025   -1.3061 C   0  0  0  0  0  0  0  0  0  0  0  0
   -2.1458    0.3946   -0.6929 O   0  0  0  0  0  0  0  0  0  0  0  0
   -0.5440   -1.1249   -0.8768 O   0  0  0  0  0  0  0  0  0  0  0  0
    0.7376   -0.0432   -3.1488 C   0  0  0  0  0  0  0  0  0  0  0  0
    1.9087    0.0516   -2.2730 N   0  0  0  0  0  0  0  0  0  0  0  0
   -0.2834    1.6576   -2.2650 H   0  0  0  0  0  0  0  0  0  0  0  0
   -1.3214    0.6036   -3.2887 H   0  0  0  0  0  0  0  0  0  0  0  0
    0.9651    0.4960   -4.0952 H   0  0  0  0  0  0  0  0  0  0  0  0
    0.5328   -1.1064   -3.4045 H   0  0  0  0  0  0  0  0  0  0  0  0
    2.1124    1.0539   -2.0546 H   0  0  0  0  0  0  0  0  0  0  0  0
    1.7639   -0.4770   -1.3849 H   0  0  0  0  0  0  0  0  0  0  0  0
    2.7345   -0.3572   -2.7670 H   0  0  0  0  0  0  0  0  0  0  0  0
  1  2  1  0  0  0  0
  1  5  1  0  0  0  0
  1  7  1  0  0  0  0
  1  8  1  0  0  0  0
  2  3  1  0  0  0  0
  2  4  2  0  0  0  0
  5  6  1  0  0  0  0
  5  9  1  0  0  0  0
  5 10  1  0  0  0  0
  6 11  1  0  0  0  0
  6 12  1  0  0  0  0
 13  6  1  0  0  0  0
M  END
