13

C          0.02700        0.52600       -2.26240
C         -0.42610       -0.42710       -1.18820
O          0.20800       -0.47900       -0.00160
O         -1.40340       -1.13440       -1.37470
C          1.43300        0.21890       -2.80790
N          2.48500        0.38250       -1.80260
H         -0.01090        1.56540       -1.87150
H         -0.68120        0.45840       -3.11770
H          1.63240        0.92570       -3.64400
H          1.46230       -0.81390       -3.22080
H          2.44520        1.34260       -1.38970
H          2.39920       -0.33750       -1.05220
H          3.41450        0.25380       -2.26390
