 xtb: 6.7.1 (edcfbbe)
          06092518073D

 37 29  0     0  0            999 V2000
    0.2784   -0.6172    1.2264 N   0  0  0  0  0  0  0  0  0  0  0  0
    1.2966    0.4568    1.1399 C   0  0  0  0  0  0  0  0  0  0  0  0
    1.4251    0.9684   -0.2921 C   0  0  0  0  0  0  0  0  0  0  0  0
    1.7564   -0.1336   -1.3005 C   0  0  0  0  0  0  0  0  0  0  0  0
    0.5241   -0.8428   -1.8737 C   0  0  0  0  0  0  0  0  0  0  0  0
    0.7058   -1.5711   -2.8910 O   0  0  0  0  0  0  0  0  0  0  0  0
   -0.5792   -0.7159   -1.3101 O   0  0  0  0  0  0  0  0  0  0  0  0
   -0.3122   -0.5324    2.0518 H   0  0  0  0  0  0  0  0  0  0  0  0
   -0.3043   -0.5910    0.3513 H   0  0  0  0  0  0  0  0  0  0  0  0
    1.0108    1.2887    1.7825 H   0  0  0  0  0  0  0  0  0  0  0  0
    2.2560    0.0631    1.4758 H   0  0  0  0  0  0  0  0  0  0  0  0
    2.2103    1.7229   -0.3203 H   0  0  0  0  0  0  0  0  0  0  0  0
    0.4912    1.4466   -0.5961 H   0  0  0  0  0  0  0  0  0  0  0  0
    2.3850   -0.9037   -0.8480 H   0  0  0  0  0  0  0  0  0  0  0  0
    2.3078    0.2678   -2.1526 H   0  0  0  0  0  0  0  0  0  0  0  0
    0.7475   -1.5507    1.2214 H   0  0  0  0  0  0  0  0  0  0  0  0
   -4.2272   -4.1128   -0.2334 O   0  0  0  0  0  0  0  0  0  0  0  0
   -3.6629   -3.8281    0.4932 H   0  0  0  0  0  0  0  0  0  0  0  0
   -4.3761   -5.0576   -0.1280 H   0  0  0  0  0  0  0  0  0  0  0  0
   -5.6683   -4.6686   -4.6709 O   0  0  0  0  0  0  0  0  0  0  0  0
   -6.3034   -4.0036   -4.9535 H   0  0  0  0  0  0  0  0  0  0  0  0
   -5.0557   -4.2017   -4.0696 H   0  0  0  0  0  0  0  0  0  0  0  0
    1.1238   -4.0142   -1.4777 O   0  0  0  0  0  0  0  0  0  0  0  0
    0.3438   -4.5447   -1.6765 H   0  0  0  0  0  0  0  0  0  0  0  0
    1.0797   -3.2591   -2.0840 H   0  0  0  0  0  0  0  0  0  0  0  0
    1.7141   -2.9426    1.0045 O   0  0  0  0  0  0  0  0  0  0  0  0
    1.8446   -3.6546    1.6378 H   0  0  0  0  0  0  0  0  0  0  0  0
    1.5464   -3.3629    0.1417 H   0  0  0  0  0  0  0  0  0  0  0  0
    2.6790   -0.6564   -4.6024 O   0  0  0  0  0  0  0  0  0  0  0  0
    3.0101   -1.3972   -5.1202 H   0  0  0  0  0  0  0  0  0  0  0  0
    1.9537   -1.0148   -4.0556 H   0  0  0  0  0  0  0  0  0  0  0  0
   -4.0161   -3.2345   -2.9521 O   0  0  0  0  0  0  0  0  0  0  0  0
   -3.0535   -3.2703   -3.0987 H   0  0  0  0  0  0  0  0  0  0  0  0
   -4.1458   -3.4385   -2.0115 H   0  0  0  0  0  0  0  0  0  0  0  0
   -1.2562   -3.3927   -3.4985 O   0  0  0  0  0  0  0  0  0  0  0  0
   -0.6719   -2.6337   -3.2920 H   0  0  0  0  0  0  0  0  0  0  0  0
   -1.1567   -3.5512   -4.4419 H   0  0  0  0  0  0  0  0  0  0  0  0
  1  2  1  0  0  0  0
  2  3  1  0  0  0  0
  3  4  1  0  0  0  0
  4  5  1  0  0  0  0
  5  6  4  0  0  0  0
  5  7  2  0  0  0  0
  1  8  1  0  0  0  0
  1  9  1  0  0  0  0
  2 10  1  0  0  0  0
  2 11  1  0  0  0  0
  3 12  1  0  0  0  0
  3 13  1  0  0  0  0
  4 14  1  0  0  0  0
  4 15  1  0  0  0  0
  1 16  1  0  0  0  0
 17 18  1  0  0  0  0
 17 19  1  0  0  0  0
 20 21  1  0  0  0  0
 20 22  1  0  0  0  0
 23 24  1  0  0  0  0
 23 25  1  0  0  0  0
 26 27  1  0  0  0  0
 26 28  1  0  0  0  0
 29 30  1  0  0  0  0
 29 31  1  0  0  0  0
 32 33  1  0  0  0  0
 32 34  1  0  0  0  0
 35 36  1  0  0  0  0
 35 37  1  0  0  0  0
M  END
