          37
  Built with Packmol                                             
  N            0.058148       -0.927583        1.469607
  C            0.211959        0.510020        1.257389
  C           -0.420296        1.026601       -0.053995
  C            0.232909        0.510995       -1.351786
  C           -0.125253       -0.896436       -1.755618
  O            0.432585       -1.420882       -2.861979
  O           -0.947959       -1.551103       -1.137172
  H            0.428548       -1.166868        2.416841
  H           -0.951876       -1.193831        1.431538
  H           -0.278739        1.044785        2.100148
  H            1.291996        0.772629        1.278823
  H           -0.263312        2.127518       -0.038280
  H           -1.516957        0.851348       -0.073370
  H            1.334639        0.617682       -1.263614
  H           -0.104560        1.158543       -2.189480
  H            0.618166       -1.463418        0.770947
  O            1.580466       -4.019421        3.393944
  H            1.235085       -4.485114        4.196722
  H            0.971582       -3.247814        3.273552
  O           -1.658981       -2.980786        2.950399
  H           -2.282244       -3.749965        2.973151
  H           -0.984113       -3.228367        2.269319
  O            2.133311       -3.907157       -0.930337
  H            2.495183       -3.029028       -1.210603
  H            2.862974       -4.319223       -0.402695
  O            1.291148       -3.873410       -3.261728
  H            1.627567       -3.238007       -3.942680
  H            2.068312       -4.451866       -3.056746
  O           -3.115354       -2.586638       -2.642169
  H           -2.351445       -2.822053       -3.226664
  H           -3.588797       -3.443903       -2.495329
  O           -0.376395       -3.957317       -1.666788
  H           -0.496196       -4.714502       -2.293630
  H           -0.229602       -4.385295       -0.785936
  O            0.183049       -5.007609        1.692808
  H           -0.026260       -5.330923        2.605096
  H           -0.397318       -5.547308        1.099081
