 xtb: 6.7.1 (edcfbbe)
          06092518073D

 37 29  0     0  0            999 V2000
   -0.1784   -1.2425    1.2162 N   0  0  0  0  0  0  0  0  0  0  0  0
   -0.1229    0.2236    1.1203 C   0  0  0  0  0  0  0  0  0  0  0  0
   -0.3078    0.6820   -0.3248 C   0  0  0  0  0  0  0  0  0  0  0  0
    0.9200    0.4615   -1.2236 C   0  0  0  0  0  0  0  0  0  0  0  0
    1.0515   -0.9479   -1.8129 C   0  0  0  0  0  0  0  0  0  0  0  0
    0.9977   -1.0878   -3.0465 O   0  0  0  0  0  0  0  0  0  0  0  0
    1.2309   -1.9114   -1.0107 O   0  0  0  0  0  0  0  0  0  0  0  0
    0.0547   -1.5902    2.1768 H   0  0  0  0  0  0  0  0  0  0  0  0
   -1.1232   -1.5689    0.9360 H   0  0  0  0  0  0  0  0  0  0  0  0
   -0.9179    0.6465    1.7346 H   0  0  0  0  0  0  0  0  0  0  0  0
    0.8379    0.5727    1.5011 H   0  0  0  0  0  0  0  0  0  0  0  0
   -0.5195    1.7513   -0.3195 H   0  0  0  0  0  0  0  0  0  0  0  0
   -1.1731    0.1753   -0.7560 H   0  0  0  0  0  0  0  0  0  0  0  0
    1.8344    0.6697   -0.6625 H   0  0  0  0  0  0  0  0  0  0  0  0
    0.8781    1.1411   -2.0767 H   0  0  0  0  0  0  0  0  0  0  0  0
    0.4915   -1.6380    0.5243 H   0  0  0  0  0  0  0  0  0  0  0  0
    0.4827   -2.2500    3.6603 O   0  0  0  0  0  0  0  0  0  0  0  0
    1.3943   -2.5252    3.7915 H   0  0  0  0  0  0  0  0  0  0  0  0
   -0.0510   -3.0710    3.6587 H   0  0  0  0  0  0  0  0  0  0  0  0
   -0.9492   -4.5467    3.3721 O   0  0  0  0  0  0  0  0  0  0  0  0
   -1.8538   -4.7036    3.6547 H   0  0  0  0  0  0  0  0  0  0  0  0
   -0.8780   -4.9108    2.4674 H   0  0  0  0  0  0  0  0  0  0  0  0
    2.5525   -4.1403   -2.0225 O   0  0  0  0  0  0  0  0  0  0  0  0
    2.1555   -3.3423   -1.6183 H   0  0  0  0  0  0  0  0  0  0  0  0
    3.4870   -3.9503   -2.1404 H   0  0  0  0  0  0  0  0  0  0  0  0
    0.3423   -3.7280   -3.7482 O   0  0  0  0  0  0  0  0  0  0  0  0
    0.5288   -2.7708   -3.6818 H   0  0  0  0  0  0  0  0  0  0  0  0
    1.1348   -4.1492   -3.3734 H   0  0  0  0  0  0  0  0  0  0  0  0
   -2.5422   -1.9731   -0.0526 O   0  0  0  0  0  0  0  0  0  0  0  0
   -2.0981   -2.6637   -0.5796 H   0  0  0  0  0  0  0  0  0  0  0  0
   -3.4078   -2.3146    0.1856 H   0  0  0  0  0  0  0  0  0  0  0  0
   -0.8219   -3.7553   -1.2518 O   0  0  0  0  0  0  0  0  0  0  0  0
   -0.7317   -3.9648   -2.1987 H   0  0  0  0  0  0  0  0  0  0  0  0
   -0.0486   -3.1847   -1.0781 H   0  0  0  0  0  0  0  0  0  0  0  0
   -0.7898   -5.5765    0.8262 O   0  0  0  0  0  0  0  0  0  0  0  0
   -0.0723   -6.1817    0.6216 H   0  0  0  0  0  0  0  0  0  0  0  0
   -0.8457   -4.9602    0.0702 H   0  0  0  0  0  0  0  0  0  0  0  0
  1  2  1  0  0  0  0
  2  3  1  0  0  0  0
  3  4  1  0  0  0  0
  4  5  1  0  0  0  0
  5  6  2  0  0  0  0
  5  7  4  0  0  0  0
  1  8  1  0  0  0  0
  1  9  1  0  0  0  0
  2 10  1  0  0  0  0
  2 11  1  0  0  0  0
  3 12  1  0  0  0  0
  3 13  1  0  0  0  0
  4 14  1  0  0  0  0
  4 15  1  0  0  0  0
  1 16  1  0  0  0  0
 17 18  1  0  0  0  0
 17 19  1  0  0  0  0
 20 21  1  0  0  0  0
 20 22  1  0  0  0  0
 23 24  1  0  0  0  0
 23 25  1  0  0  0  0
 26 27  1  0  0  0  0
 26 28  1  0  0  0  0
 29 30  1  0  0  0  0
 29 31  1  0  0  0  0
 32 33  1  0  0  0  0
 32 34  1  0  0  0  0
 35 36  1  0  0  0  0
 35 37  1  0  0  0  0
M  END
