 xtb: 6.7.1 (edcfbbe)
          06092518053D

 37 29  0     0  0            999 V2000
    0.4862   -0.1836    2.0389 N   0  0  0  0  0  0  0  0  0  0  0  0
    1.3077    0.0000    0.8271 C   0  0  0  0  0  0  0  0  0  0  0  0
    0.5377    0.6993   -0.2899 C   0  0  0  0  0  0  0  0  0  0  0  0
   -0.3930   -0.2383   -1.0602 C   0  0  0  0  0  0  0  0  0  0  0  0
    0.3934   -1.1179   -2.0626 C   0  0  0  0  0  0  0  0  0  0  0  0
    1.0938   -0.5338   -2.9130 O   0  0  0  0  0  0  0  0  0  0  0  0
    0.2671   -2.3658   -1.9717 O   0  0  0  0  0  0  0  0  0  0  0  0
    1.0488   -0.6618    2.7786 H   0  0  0  0  0  0  0  0  0  0  0  0
    0.1528    0.7173    2.3825 H   0  0  0  0  0  0  0  0  0  0  0  0
    2.1832    0.5976    1.0841 H   0  0  0  0  0  0  0  0  0  0  0  0
    1.6488   -0.9742    0.4762 H   0  0  0  0  0  0  0  0  0  0  0  0
    1.2461    1.1067   -1.0155 H   0  0  0  0  0  0  0  0  0  0  0  0
   -0.0392    1.5308    0.1193 H   0  0  0  0  0  0  0  0  0  0  0  0
   -0.9791   -0.8766   -0.4028 H   0  0  0  0  0  0  0  0  0  0  0  0
   -1.0793    0.3510   -1.6737 H   0  0  0  0  0  0  0  0  0  0  0  0
   -0.3560   -0.8013    1.8550 H   0  0  0  0  0  0  0  0  0  0  0  0
   -1.9854   -3.6129    3.8491 O   0  0  0  0  0  0  0  0  0  0  0  0
   -2.8724   -3.8413    4.1398 H   0  0  0  0  0  0  0  0  0  0  0  0
   -1.7029   -4.3360    3.2482 H   0  0  0  0  0  0  0  0  0  0  0  0
    1.9056   -1.5976    3.9297 O   0  0  0  0  0  0  0  0  0  0  0  0
    2.5860   -1.2445    4.5091 H   0  0  0  0  0  0  0  0  0  0  0  0
    1.2225   -2.0050    4.5095 H   0  0  0  0  0  0  0  0  0  0  0  0
    2.3593   -3.0064    1.5792 O   0  0  0  0  0  0  0  0  0  0  0  0
    2.2389   -2.6007    2.4610 H   0  0  0  0  0  0  0  0  0  0  0  0
    3.0659   -3.6505    1.6627 H   0  0  0  0  0  0  0  0  0  0  0  0
   -1.5852   -1.8687    1.7187 O   0  0  0  0  0  0  0  0  0  0  0  0
   -1.8009   -2.3298    2.5506 H   0  0  0  0  0  0  0  0  0  0  0  0
   -1.1263   -2.5485    1.1792 H   0  0  0  0  0  0  0  0  0  0  0  0
   -0.0481   -2.5579    5.5057 O   0  0  0  0  0  0  0  0  0  0  0  0
   -0.5408   -1.9307    6.0428 H   0  0  0  0  0  0  0  0  0  0  0  0
   -0.7039   -3.0078    4.9397 H   0  0  0  0  0  0  0  0  0  0  0  0
   -1.2229   -5.4903    2.0436 O   0  0  0  0  0  0  0  0  0  0  0  0
   -0.5761   -6.1864    2.1890 H   0  0  0  0  0  0  0  0  0  0  0  0
   -0.8687   -4.9310    1.3279 H   0  0  0  0  0  0  0  0  0  0  0  0
   -0.0324   -3.6282    0.3883 O   0  0  0  0  0  0  0  0  0  0  0  0
    0.0225   -3.2703   -0.5222 H   0  0  0  0  0  0  0  0  0  0  0  0
    0.8415   -3.4356    0.7916 H   0  0  0  0  0  0  0  0  0  0  0  0
  1  2  1  0  0  0  0
  2  3  1  0  0  0  0
  3  4  1  0  0  0  0
  4  5  1  0  0  0  0
  5  6  2  0  0  0  0
  5  7  4  0  0  0  0
  1  8  1  0  0  0  0
  1  9  1  0  0  0  0
  2 10  1  0  0  0  0
  2 11  1  0  0  0  0
  3 12  1  0  0  0  0
  3 13  1  0  0  0  0
  4 14  1  0  0  0  0
  4 15  1  0  0  0  0
  1 16  1  0  0  0  0
 17 18  1  0  0  0  0
 17 19  1  0  0  0  0
 20 21  1  0  0  0  0
 20 22  1  0  0  0  0
 23 24  1  0  0  0  0
 23 25  1  0  0  0  0
 26 27  1  0  0  0  0
 26 28  1  0  0  0  0
 29 30  1  0  0  0  0
 29 31  1  0  0  0  0
 32 33  1  0  0  0  0
 32 34  1  0  0  0  0
 35 36  1  0  0  0  0
 35 37  1  0  0  0  0
M  END
