28

N        0.3985000000      0.9550100000      0.3529800000                 
C        1.0242600000      2.1186500000     -0.2713300000                 
C        0.4367100000      2.4879500000     -1.6514500000                 
C        0.6676700000      1.4505800000     -2.7682800000                 
C       -0.2246600000      0.2361600000     -2.7343500000                 
O       -0.0572400000     -0.7239500000     -3.6619400000                 
O       -1.1287600000      0.1274500000     -1.9227500000                 
H        0.7911900000      0.8402400000      1.3144000000                 
H       -0.6340900000      1.0968200000      0.4313000000                 
H        0.8844600000      2.9953700000      0.3986100000                 
H        2.1177400000      1.9425100000     -0.3671300000                 
H        0.9777800000      3.4091600000     -1.9605200000                 
H       -0.6405500000      2.7485600000     -1.5783100000                 
H        1.7349900000      1.1445700000     -2.7559800000                 
H        0.4672600000      1.9429500000     -3.7441600000                 
H        0.6226500000      0.0872200000     -0.1814000000                 
O       -0.6610946792     -1.2588560879      1.4114085897                 
H       -0.4107108556     -2.2142710805      1.3404270220                 
H       -1.4670312891     -1.2555964591      1.9867927793                 
O        0.2855636550      1.3704574024      3.8024526771                 
H        1.1021690881      0.8606603449      4.0344241771                 
H       -0.0615433482      1.6922891242      4.6722529307                 
O       -2.7718084254     -3.3243587582     -1.9352382760                 
H       -2.4324187812     -2.4652413946     -2.2920018881                 
H       -2.5739861504     -3.2859388954     -0.9657014425                 
O       -1.3207112900     -1.8026752068     -6.5164701476                 
H       -1.5159726165     -1.1745664027     -5.7762670710                 
H       -0.9600864365     -2.6091195933     -6.0690234172                 
