          34
  Built with Packmol                                             
  C            0.000717       -0.522558        0.678044
  C            0.000155        0.093927        2.050368
  O           -0.000195       -0.630131        3.032262
  O           -0.000797        1.431559        2.216433
  C            0.000989        0.525311       -0.443260
  N           -0.000301       -0.116591       -1.756652
  H            0.902593       -1.162928        0.578888
  H           -0.902640       -1.160238        0.579017
  H           -0.902002        1.167413       -0.351037
  H            0.903666        1.168949       -0.351720
  H           -0.857069       -0.705532       -1.867523
  H            0.853228       -0.710069       -1.867795
  H            0.001656        0.620887       -2.497026
  O           -0.707598       -4.400584       -3.800201
  H            0.223403       -4.719894       -3.691166
  H           -0.685248       -3.846053       -4.620329
  O            1.225768       -2.764658       -3.604976
  H            1.744210       -3.313449       -2.964151
  H            0.364239       -2.595888       -3.146831
  O            0.968202       -3.158900       -0.546673
  H            0.243485       -2.620986       -0.954160
  H            0.853186       -4.063349       -0.933139
  O            0.061321       -1.450539       -4.999676
  H            0.102660       -2.124653       -5.723881
  H           -0.567276       -0.763272       -5.336043
  O            1.916693        0.129504       -5.701610
  H            1.959222       -0.834670       -5.923353
  H            1.965512        0.159106       -4.712998
  O           -2.743850       -2.332835       -4.030981
  H           -2.138207       -2.205958       -4.804098
  H           -2.285411       -1.879095       -3.279604
  O           -2.588779       -2.484121       -0.016128
  H           -2.355240       -3.219304        0.604820
  H           -3.184168       -1.893917        0.510924
