          34
  Built with Packmol                                             
  C            0.000717       -0.522558        0.678044
  C            0.000155        0.093927        2.050368
  O           -0.000195       -0.630131        3.032262
  O           -0.000797        1.431559        2.216433
  C            0.000989        0.525311       -0.443260
  N           -0.000301       -0.116591       -1.756652
  H            0.902593       -1.162928        0.578888
  H           -0.902640       -1.160238        0.579017
  H           -0.902002        1.167413       -0.351037
  H            0.903666        1.168949       -0.351720
  H           -0.857069       -0.705532       -1.867523
  H            0.853228       -0.710069       -1.867795
  H            0.001656        0.620887       -2.497026
  O            2.075694        3.567957       -3.596084
  H            1.702372        3.907395       -4.448154
  H            2.698416        2.847467       -3.867604
  O            2.811307       -0.662077       -3.370435
  H            2.197913        0.089931       -3.567520
  H            2.442388       -1.424252       -3.883856
  O           -1.354077       -3.786279       -0.151735
  H           -1.666619       -3.699964        0.783935
  H           -2.170244       -3.661432       -0.698450
  O           -2.544753        0.569517       -2.817553
  H           -3.163036        0.160156       -2.161229
  H           -2.904647        1.480577       -2.962673
  O            2.450961        1.948420       -1.881082
  H            3.244009        1.428099       -2.165604
  H            2.690921        2.296711       -0.985691
  O           -1.387610       -3.223838       -3.253579
  H           -0.753905       -2.880525       -3.932671
  H           -0.856870       -3.267715       -2.418712
  O            0.512160        1.826266       -4.254265
  H           -0.113479        1.802580       -5.021483
  H            0.136981        2.514692       -3.649349
