          34
  Built with Packmol                                             
  C            0.000717       -0.522558        0.678044
  C            0.000155        0.093927        2.050368
  O           -0.000195       -0.630131        3.032262
  O           -0.000797        1.431559        2.216433
  C            0.000989        0.525311       -0.443260
  N           -0.000301       -0.116591       -1.756652
  H            0.902593       -1.162928        0.578888
  H           -0.902640       -1.160238        0.579017
  H           -0.902002        1.167413       -0.351037
  H            0.903666        1.168949       -0.351720
  H           -0.857069       -0.705532       -1.867523
  H            0.853228       -0.710069       -1.867795
  H            0.001656        0.620887       -2.497026
  O           -3.003360       -2.105797       -0.964387
  H           -3.590762       -1.311228       -0.899342
  H           -3.002742       -2.489280       -0.051395
  O            1.023412       -2.559902       -5.618160
  H            1.554284       -1.973744       -6.214151
  H            0.146101       -2.106988       -5.541948
  O            0.812403       -4.146330       -1.933767
  H            0.048922       -4.383892       -1.349583
  H            1.578788       -4.050982       -1.313947
  O           -1.944086       -2.874603        2.110602
  H           -2.233711       -3.670440        2.623800
  H           -2.331716       -2.107580        2.602569
  O            0.234473       -3.404564        3.830898
  H           -0.609650       -3.091075        4.242957
  H            0.015393       -3.517520        2.871806
  O            2.018493       -2.282251       -3.626732
  H            2.260555       -3.129567       -3.174989
  H            2.715256       -2.162968       -4.320205
  O            2.757118       -2.049708        3.030803
  H            2.533439       -3.012544        3.090167
  H            2.449459       -1.669968        3.892056
