          34
  Built with Packmol                                             
  C            0.000717       -0.522558        0.678044
  C            0.000155        0.093927        2.050368
  O           -0.000195       -0.630131        3.032262
  O           -0.000797        1.431559        2.216433
  C            0.000989        0.525311       -0.443260
  N           -0.000301       -0.116591       -1.756652
  H            0.902593       -1.162928        0.578888
  H           -0.902640       -1.160238        0.579017
  H           -0.902002        1.167413       -0.351037
  H            0.903666        1.168949       -0.351720
  H           -0.857069       -0.705532       -1.867523
  H            0.853228       -0.710069       -1.867795
  H            0.001656        0.620887       -2.497026
  O            1.832799        1.066417        5.019172
  H            1.544237        1.941022        4.655290
  H            1.548852        1.086439        5.967637
  O           -0.513374        0.990417        6.875303
  H           -0.277414        1.951407        6.837440
  H           -0.012234        0.642444        7.655294
  O           -1.707554        1.361824        4.304586
  H           -2.083705        0.582727        4.786383
  H           -1.508776        2.021219        5.016132
  O           -0.334114       -1.221552       -7.160139
  H            0.028374       -1.626592       -6.332397
  H            0.453337       -0.816979       -7.603822
  O           -3.058342        0.270356       -1.210025
  H           -2.878932       -0.349285       -0.458714
  H           -3.426929        1.082315       -0.779352
  O           -0.903812        3.714823       -0.830038
  H           -1.867584        3.904868       -0.955087
  H           -0.658052        3.155552       -1.609417
  O            1.157030        3.904216        0.281176
  H            2.073396        4.242565        0.443670
  H            1.241782        3.335876       -0.525310
