          34
  Built with Packmol                                             
  C            0.000717       -0.522558        0.678044
  C            0.000155        0.093927        2.050368
  O           -0.000195       -0.630131        3.032262
  O           -0.000797        1.431559        2.216433
  C            0.000989        0.525311       -0.443260
  N           -0.000301       -0.116591       -1.756652
  H            0.902593       -1.162928        0.578888
  H           -0.902640       -1.160238        0.579017
  H           -0.902002        1.167413       -0.351037
  H            0.903666        1.168949       -0.351720
  H           -0.857069       -0.705532       -1.867523
  H            0.853228       -0.710069       -1.867795
  H            0.001656        0.620887       -2.497026
  O            0.784435       -3.021479        3.012126
  H            1.766967       -3.100821        3.106705
  H            0.420444       -3.481301        3.810053
  O           -1.362863       -2.608712        4.759341
  H           -1.796403       -1.718652        4.738221
  H           -1.828834       -3.128380        4.056895
  O            2.607497        2.475626       -2.901031
  H            3.314027        1.787480       -2.989812
  H            2.735398        3.065270       -3.686254
  O           -1.620168       -3.225043        0.461038
  H           -2.511165       -2.821954        0.305299
  H           -1.666767       -4.109031        0.017184
  O            1.640581       -3.250205       -3.056842
  H            2.220265       -2.462881       -2.899689
  H            0.996054       -2.950117       -3.746150
  O           -2.039174       -3.058111       -3.026770
  H           -2.240004       -2.129181       -2.748621
  H           -1.378309       -2.960823       -3.757800
  O           -2.553795        1.134348        1.291373
  H           -2.905068        2.033210        1.513331
  H           -2.120006        0.824477        2.125891
