          34
  Built with Packmol                                             
  C            0.000717       -0.522558        0.678044
  C            0.000155        0.093927        2.050368
  O           -0.000195       -0.630131        3.032262
  O           -0.000797        1.431559        2.216433
  C            0.000989        0.525311       -0.443260
  N           -0.000301       -0.116591       -1.756652
  H            0.902593       -1.162928        0.578888
  H           -0.902640       -1.160238        0.579017
  H           -0.902002        1.167413       -0.351037
  H            0.903666        1.168949       -0.351720
  H           -0.857069       -0.705532       -1.867523
  H            0.853228       -0.710069       -1.867795
  H            0.001656        0.620887       -2.497026
  O           -2.295495        1.706529       -3.636058
  H           -2.724881        2.570643       -3.858651
  H           -1.393382        1.766410       -4.040061
  O           -1.152807       -4.125872        0.944655
  H           -1.106058       -5.115026        0.945119
  H           -0.482249       -3.846120        0.271822
  O           -3.101539        1.825770       -0.916367
  H           -2.565828        2.592998       -0.592353
  H           -3.438146        2.114504       -1.801771
  O           -2.968157       -3.108820       -0.391001
  H           -2.333632       -3.672837       -0.900779
  H           -3.062769       -2.287296       -0.935758
  O            1.627753       -3.231076        0.441094
  H            1.402499       -3.386174        1.392837
  H            1.686026       -4.138479        0.048874
  O           -3.294519       -0.216293        1.222029
  H           -3.052352        0.713850        0.983703
  H           -3.620976       -0.612412        0.375194
  O            1.945564       -3.250793       -1.948297
  H            2.340373       -2.342654       -1.943862
  H            2.589994       -3.798976       -2.462904
