 xtb: 6.7.1 (edcfbbe)
          06092518033D

 37 29  0     0  0            999 V2000
    0.5530   -1.6412    2.6810 N   0  0  0  0  0  0  0  0  0  0  0  0
   -0.0095   -1.4248    1.3364 C   0  0  0  0  0  0  0  0  0  0  0  0
    0.9327   -0.5671    0.4986 C   0  0  0  0  0  0  0  0  0  0  0  0
    0.3292   -0.2004   -0.8577 C   0  0  0  0  0  0  0  0  0  0  0  0
    0.3681   -1.3178   -1.9071 C   0  0  0  0  0  0  0  0  0  0  0  0
    0.2422   -2.5123   -1.5317 O   0  0  0  0  0  0  0  0  0  0  0  0
    0.5036   -0.9799   -3.1030 O   0  0  0  0  0  0  0  0  0  0  0  0
    1.4539   -2.1614    2.6040 H   0  0  0  0  0  0  0  0  0  0  0  0
    0.7294   -0.7295    3.1397 H   0  0  0  0  0  0  0  0  0  0  0  0
   -0.9743   -0.9232    1.4132 H   0  0  0  0  0  0  0  0  0  0  0  0
   -0.1598   -2.3843    0.8444 H   0  0  0  0  0  0  0  0  0  0  0  0
    1.8727   -1.0964    0.3339 H   0  0  0  0  0  0  0  0  0  0  0  0
    1.1428    0.3585    1.0372 H   0  0  0  0  0  0  0  0  0  0  0  0
   -0.7252    0.0647   -0.7364 H   0  0  0  0  0  0  0  0  0  0  0  0
    0.8402    0.6563   -1.3010 H   0  0  0  0  0  0  0  0  0  0  0  0
   -0.0965   -2.1982    3.2703 H   0  0  0  0  0  0  0  0  0  0  0  0
    2.2305   -3.9335   -0.3013 O   0  0  0  0  0  0  0  0  0  0  0  0
    2.1089   -4.8428   -0.5894 H   0  0  0  0  0  0  0  0  0  0  0  0
    1.5450   -3.4167   -0.7635 H   0  0  0  0  0  0  0  0  0  0  0  0
   -1.1338   -3.2347    4.2314 O   0  0  0  0  0  0  0  0  0  0  0  0
   -2.0589   -3.3191    3.9835 H   0  0  0  0  0  0  0  0  0  0  0  0
   -0.7867   -4.1213    4.3705 H   0  0  0  0  0  0  0  0  0  0  0  0
    2.8442   -3.1205    2.2618 O   0  0  0  0  0  0  0  0  0  0  0  0
    2.6523   -3.4699    1.3718 H   0  0  0  0  0  0  0  0  0  0  0  0
    3.7395   -2.7733    2.2346 H   0  0  0  0  0  0  0  0  0  0  0  0
   -2.3052   -3.1753   -0.7823 O   0  0  0  0  0  0  0  0  0  0  0  0
   -1.3866   -2.9962   -1.0598 H   0  0  0  0  0  0  0  0  0  0  0  0
   -2.7158   -3.6449   -1.5146 H   0  0  0  0  0  0  0  0  0  0  0  0
    0.2915   -2.7966   -5.1418 O   0  0  0  0  0  0  0  0  0  0  0  0
    0.6931   -2.3220   -5.8769 H   0  0  0  0  0  0  0  0  0  0  0  0
    0.3529   -2.1834   -4.3770 H   0  0  0  0  0  0  0  0  0  0  0  0
   -3.0320   -0.6418    0.1908 O   0  0  0  0  0  0  0  0  0  0  0  0
   -3.9908   -0.5599    0.1739 H   0  0  0  0  0  0  0  0  0  0  0  0
   -2.8306   -1.5369   -0.1361 H   0  0  0  0  0  0  0  0  0  0  0  0
    1.0074    0.8721    3.8695 O   0  0  0  0  0  0  0  0  0  0  0  0
    0.2627    1.3438    4.2537 H   0  0  0  0  0  0  0  0  0  0  0  0
    1.7635    0.9980    4.4504 H   0  0  0  0  0  0  0  0  0  0  0  0
  1  2  1  0  0  0  0
  2  3  1  0  0  0  0
  3  4  1  0  0  0  0
  4  5  1  0  0  0  0
  5  6  4  0  0  0  0
  5  7  4  0  0  0  0
  1  8  1  0  0  0  0
  1  9  1  0  0  0  0
  2 10  1  0  0  0  0
  2 11  1  0  0  0  0
  3 12  1  0  0  0  0
  3 13  1  0  0  0  0
  4 14  1  0  0  0  0
  4 15  1  0  0  0  0
  1 16  1  0  0  0  0
 17 18  1  0  0  0  0
 17 19  1  0  0  0  0
 20 21  1  0  0  0  0
 20 22  1  0  0  0  0
 23 24  1  0  0  0  0
 23 25  1  0  0  0  0
 26 27  1  0  0  0  0
 26 28  1  0  0  0  0
 29 30  1  0  0  0  0
 29 31  1  0  0  0  0
 32 33  1  0  0  0  0
 32 34  1  0  0  0  0
 35 36  1  0  0  0  0
 35 37  1  0  0  0  0
M  END
