 xtb: 6.7.1 (edcfbbe)
          06102511363D

 28 23  0     0  0            999 V2000
    0.9790    0.4880    0.4901 N   0  0  0  0  0  0  0  0  0  0  0  0
    0.9146    1.5724   -0.5063 C   0  0  0  0  0  0  0  0  0  0  0  0
    0.7265    1.0160   -1.9164 C   0  0  0  0  0  0  0  0  0  0  0  0
    1.6874   -0.1350   -2.2541 C   0  0  0  0  0  0  0  0  0  0  0  0
    3.1287    0.1411   -1.7943 C   0  0  0  0  0  0  0  0  0  0  0  0
    3.9424    0.6337   -2.6012 O   0  0  0  0  0  0  0  0  0  0  0  0
    3.4026   -0.1572   -0.6019 O   0  0  0  0  0  0  0  0  0  0  0  0
    1.0044    0.8695    1.4590 H   0  0  0  0  0  0  0  0  0  0  0  0
    0.1666   -0.1525    0.3917 H   0  0  0  0  0  0  0  0  0  0  0  0
    0.0903    2.2427   -0.2651 H   0  0  0  0  0  0  0  0  0  0  0  0
    1.8482    2.1356   -0.4637 H   0  0  0  0  0  0  0  0  0  0  0  0
    0.8854    1.8226   -2.6328 H   0  0  0  0  0  0  0  0  0  0  0  0
   -0.2926    0.6475   -2.0385 H   0  0  0  0  0  0  0  0  0  0  0  0
    1.3608   -1.0591   -1.7750 H   0  0  0  0  0  0  0  0  0  0  0  0
    1.6982   -0.2842   -3.3340 H   0  0  0  0  0  0  0  0  0  0  0  0
    1.8657   -0.0273    0.3087 H   0  0  0  0  0  0  0  0  0  0  0  0
   -1.2383   -1.2076    0.3245 O   0  0  0  0  0  0  0  0  0  0  0  0
   -2.0689   -0.8948    0.6973 H   0  0  0  0  0  0  0  0  0  0  0  0
   -1.1517   -2.1364    0.5565 H   0  0  0  0  0  0  0  0  0  0  0  0
    1.1041    1.4665    3.0832 O   0  0  0  0  0  0  0  0  0  0  0  0
    0.9399    0.8330    3.7890 H   0  0  0  0  0  0  0  0  0  0  0  0
    1.9114    1.9400    3.3030 H   0  0  0  0  0  0  0  0  0  0  0  0
    2.7744    2.2100   -4.5208 O   0  0  0  0  0  0  0  0  0  0  0  0
    3.2387    1.6468   -3.8675 H   0  0  0  0  0  0  0  0  0  0  0  0
    3.4613    2.5660   -5.0921 H   0  0  0  0  0  0  0  0  0  0  0  0
    5.7074    0.6822    0.6652 O   0  0  0  0  0  0  0  0  0  0  0  0
    4.9064    0.3332    0.2200 H   0  0  0  0  0  0  0  0  0  0  0  0
    6.2867    0.9773   -0.0430 H   0  0  0  0  0  0  0  0  0  0  0  0
  1  2  1  0  0  0  0
  2  3  1  0  0  0  0
  3  4  1  0  0  0  0
  4  5  1  0  0  0  0
  5  6  4  0  0  0  0
  5  7  4  0  0  0  0
  1  8  1  0  0  0  0
  1  9  1  0  0  0  0
  2 10  1  0  0  0  0
  2 11  1  0  0  0  0
  3 12  1  0  0  0  0
  3 13  1  0  0  0  0
  4 14  1  0  0  0  0
  4 15  1  0  0  0  0
  1 16  1  0  0  0  0
 17 18  1  0  0  0  0
 17 19  1  0  0  0  0
 20 21  1  0  0  0  0
 20 22  1  0  0  0  0
 23 24  1  0  0  0  0
 23 25  1  0  0  0  0
 26 27  1  0  0  0  0
 26 28  1  0  0  0  0
M  END
