 xtb: 6.7.1 (edcfbbe)
          06092517533D

 34 26  0     0  0            999 V2000
    1.1598   -0.6768    0.3990 C   0  0  0  0  0  0  0  0  0  0  0  0
    1.9244    0.1950    1.4064 C   0  0  0  0  0  0  0  0  0  0  0  0
    2.3524   -0.3761    2.4504 O   0  0  0  0  0  0  0  0  0  0  0  0
    2.0784    1.4024    1.1556 O   0  0  0  0  0  0  0  0  0  0  0  0
   -0.1099   -0.0118   -0.1110 C   0  0  0  0  0  0  0  0  0  0  0  0
   -1.2096   -0.2302    0.8428 N   0  0  0  0  0  0  0  0  0  0  0  0
    1.8457   -0.8573   -0.4234 H   0  0  0  0  0  0  0  0  0  0  0  0
    0.9195   -1.6317    0.8612 H   0  0  0  0  0  0  0  0  0  0  0  0
    0.0839    1.0585   -0.2292 H   0  0  0  0  0  0  0  0  0  0  0  0
   -0.3794   -0.4388   -1.0745 H   0  0  0  0  0  0  0  0  0  0  0  0
   -1.0940    0.3661    1.7086 H   0  0  0  0  0  0  0  0  0  0  0  0
   -1.2006   -1.2111    1.1575 H   0  0  0  0  0  0  0  0  0  0  0  0
   -2.1153   -0.0029    0.4232 H   0  0  0  0  0  0  0  0  0  0  0  0
    2.9659    1.0522    4.6880 O   0  0  0  0  0  0  0  0  0  0  0  0
    2.8308    0.5381    3.8582 H   0  0  0  0  0  0  0  0  0  0  0  0
    3.9142    1.0692    4.8323 H   0  0  0  0  0  0  0  0  0  0  0  0
    0.2397   -1.0534    4.1041 O   0  0  0  0  0  0  0  0  0  0  0  0
    1.0306   -0.8611    3.5697 H   0  0  0  0  0  0  0  0  0  0  0  0
    0.5389   -0.9996    5.0295 H   0  0  0  0  0  0  0  0  0  0  0  0
    2.3441   -3.2216    2.3337 O   0  0  0  0  0  0  0  0  0  0  0  0
    1.3894   -3.3319    2.2352 H   0  0  0  0  0  0  0  0  0  0  0  0
    2.4831   -2.2627    2.4254 H   0  0  0  0  0  0  0  0  0  0  0  0
   -0.6888   -2.7590    2.1710 O   0  0  0  0  0  0  0  0  0  0  0  0
   -1.2286   -3.4964    2.4802 H   0  0  0  0  0  0  0  0  0  0  0  0
   -0.4481   -2.2491    2.9733 H   0  0  0  0  0  0  0  0  0  0  0  0
    1.3661   -0.3080    6.5031 O   0  0  0  0  0  0  0  0  0  0  0  0
    0.9491    0.3049    7.1201 H   0  0  0  0  0  0  0  0  0  0  0  0
    1.9616    0.2298    5.9547 H   0  0  0  0  0  0  0  0  0  0  0  0
    1.1823    2.8390    3.3239 O   0  0  0  0  0  0  0  0  0  0  0  0
    1.5761    2.5355    2.4848 H   0  0  0  0  0  0  0  0  0  0  0  0
    1.7674    2.4801    4.0109 H   0  0  0  0  0  0  0  0  0  0  0  0
   -1.0044    1.1701    3.1330 O   0  0  0  0  0  0  0  0  0  0  0  0
   -0.6565    0.4173    3.6524 H   0  0  0  0  0  0  0  0  0  0  0  0
   -0.3375    1.8741    3.2171 H   0  0  0  0  0  0  0  0  0  0  0  0
  1  2  1  0  0  0  0
  2  3  4  0  0  0  0
  2  4  2  0  0  0  0
  1  5  1  0  0  0  0
  5  6  1  0  0  0  0
  1  7  1  0  0  0  0
  1  8  1  0  0  0  0
  5  9  1  0  0  0  0
  5 10  1  0  0  0  0
  6 11  1  0  0  0  0
  6 12  1  0  0  0  0
  6 13  1  0  0  0  0
 14 15  1  0  0  0  0
 14 16  1  0  0  0  0
 17 18  1  0  0  0  0
 17 19  1  0  0  0  0
 20 21  1  0  0  0  0
 20 22  1  0  0  0  0
 23 24  1  0  0  0  0
 23 25  1  0  0  0  0
 26 27  1  0  0  0  0
 26 28  1  0  0  0  0
 29 30  1  0  0  0  0
 29 31  1  0  0  0  0
 32 33  1  0  0  0  0
 32 34  1  0  0  0  0
M  END
