16
Rotated molecule
N -0.443767 -0.471812 1.745205
C 0.693510 0.104360 1.026899
C 0.252325 0.999585 -0.146245
C -0.573823 0.306802 -1.244857
C 0.172762 -0.788129 -1.957711
O 0.408222 -0.687945 -3.151027
O 0.546344 -1.903284 -1.303739
H -0.087472 -1.004114 2.571270
H -1.081184 0.285863 2.081386
H 1.280979 0.732860 1.731174
H 1.368045 -0.703734 0.677139
H 1.158667 1.443130 -0.611175
H -0.355788 1.834342 0.265274
H -1.517364 -0.100802 -0.829235
H -0.852734 1.086771 -1.985872
H -0.968720 -1.133893 1.131516
