 xtb: 6.7.1 (edcfbbe)
          06092518033D

 37 29  0     0  0            999 V2000
   -1.2132   -0.5808    2.5035 N   0  0  0  0  0  0  0  0  0  0  0  0
   -1.2148   -0.8388    1.0539 C   0  0  0  0  0  0  0  0  0  0  0  0
   -0.6016    0.3469    0.3101 C   0  0  0  0  0  0  0  0  0  0  0  0
   -0.0936   -0.0460   -1.0726 C   0  0  0  0  0  0  0  0  0  0  0  0
    1.1796   -0.9232   -1.0596 C   0  0  0  0  0  0  0  0  0  0  0  0
    1.6727   -1.2536    0.0504 O   0  0  0  0  0  0  0  0  0  0  0  0
    1.6435   -1.2614   -2.1649 O   0  0  0  0  0  0  0  0  0  0  0  0
   -0.2184   -0.3961    2.7818 H   0  0  0  0  0  0  0  0  0  0  0  0
   -1.8037    0.2452    2.7378 H   0  0  0  0  0  0  0  0  0  0  0  0
   -2.2314   -1.0178    0.7045 H   0  0  0  0  0  0  0  0  0  0  0  0
   -0.6154   -1.7277    0.8542 H   0  0  0  0  0  0  0  0  0  0  0  0
    0.2500    0.7220    0.8784 H   0  0  0  0  0  0  0  0  0  0  0  0
   -1.3286    1.1531    0.2124 H   0  0  0  0  0  0  0  0  0  0  0  0
   -0.8455   -0.6026   -1.6371 H   0  0  0  0  0  0  0  0  0  0  0  0
    0.1616    0.8375   -1.6623 H   0  0  0  0  0  0  0  0  0  0  0  0
   -1.5364   -1.4078    3.0323 H   0  0  0  0  0  0  0  0  0  0  0  0
   -2.2646    3.4619    0.9893 O   0  0  0  0  0  0  0  0  0  0  0  0
   -2.9136    3.9452    0.4686 H   0  0  0  0  0  0  0  0  0  0  0  0
   -1.5250    4.0563    1.1438 H   0  0  0  0  0  0  0  0  0  0  0  0
    1.4979   -0.5073    2.8136 O   0  0  0  0  0  0  0  0  0  0  0  0
    1.7061   -0.7196    1.8890 H   0  0  0  0  0  0  0  0  0  0  0  0
    1.5205   -1.3688    3.2846 H   0  0  0  0  0  0  0  0  0  0  0  0
   -1.8384   -2.8725    4.0353 O   0  0  0  0  0  0  0  0  0  0  0  0
   -2.1595   -2.6789    4.9222 H   0  0  0  0  0  0  0  0  0  0  0  0
   -2.3404   -3.6220    3.7018 H   0  0  0  0  0  0  0  0  0  0  0  0
    2.8046    5.0307    2.8410 O   0  0  0  0  0  0  0  0  0  0  0  0
    3.5953    5.3179    3.3077 H   0  0  0  0  0  0  0  0  0  0  0  0
    2.7184    4.0831    2.9900 H   0  0  0  0  0  0  0  0  0  0  0  0
    1.3160   -3.7360    1.0793 O   0  0  0  0  0  0  0  0  0  0  0  0
    2.0054   -4.3266    0.7659 H   0  0  0  0  0  0  0  0  0  0  0  0
    1.5052   -2.8652    0.6741 H   0  0  0  0  0  0  0  0  0  0  0  0
    1.0281   -3.0307    3.7418 O   0  0  0  0  0  0  0  0  0  0  0  0
    1.1345   -3.3946    2.8430 H   0  0  0  0  0  0  0  0  0  0  0  0
    0.0697   -3.0333    3.9057 H   0  0  0  0  0  0  0  0  0  0  0  0
   -2.8569    1.5868    2.9909 O   0  0  0  0  0  0  0  0  0  0  0  0
   -3.8149    1.5088    3.0038 H   0  0  0  0  0  0  0  0  0  0  0  0
   -2.6362    2.2626    2.3286 H   0  0  0  0  0  0  0  0  0  0  0  0
  1  2  1  0  0  0  0
  2  3  1  0  0  0  0
  3  4  1  0  0  0  0
  4  5  1  0  0  0  0
  5  6  4  0  0  0  0
  5  7  2  0  0  0  0
  1  8  1  0  0  0  0
  1  9  1  0  0  0  0
  2 10  1  0  0  0  0
  2 11  1  0  0  0  0
  3 12  1  0  0  0  0
  3 13  1  0  0  0  0
  4 14  1  0  0  0  0
  4 15  1  0  0  0  0
  1 16  1  0  0  0  0
 17 18  1  0  0  0  0
 17 19  1  0  0  0  0
 20 21  1  0  0  0  0
 20 22  1  0  0  0  0
 23 24  1  0  0  0  0
 23 25  1  0  0  0  0
 26 27  1  0  0  0  0
 26 28  1  0  0  0  0
 29 30  1  0  0  0  0
 29 31  1  0  0  0  0
 32 33  1  0  0  0  0
 32 34  1  0  0  0  0
 35 36  1  0  0  0  0
 35 37  1  0  0  0  0
M  END
