 xtb: 6.7.1 (edcfbbe)
          06092518073D

 37 29  0     0  0            999 V2000
    0.0758   -0.5212    1.3372 N   0  0  0  0  0  0  0  0  0  0  0  0
    0.1695    0.8539    0.8160 C   0  0  0  0  0  0  0  0  0  0  0  0
   -1.1281    1.2794    0.1372 C   0  0  0  0  0  0  0  0  0  0  0  0
   -1.3538    0.6580   -1.2468 C   0  0  0  0  0  0  0  0  0  0  0  0
   -1.9854   -0.7534   -1.2889 C   0  0  0  0  0  0  0  0  0  0  0  0
   -2.8215   -0.9710   -2.1872 O   0  0  0  0  0  0  0  0  0  0  0  0
   -1.6089   -1.6066   -0.4468 O   0  0  0  0  0  0  0  0  0  0  0  0
    1.0207   -0.9523    1.4314 H   0  0  0  0  0  0  0  0  0  0  0  0
   -0.3955   -0.5405    2.2590 H   0  0  0  0  0  0  0  0  0  0  0  0
    0.3796    1.5347    1.6398 H   0  0  0  0  0  0  0  0  0  0  0  0
    0.9914    0.9116    0.1018 H   0  0  0  0  0  0  0  0  0  0  0  0
   -1.1004    2.3614    0.0081 H   0  0  0  0  0  0  0  0  0  0  0  0
   -1.9742    1.0469    0.7855 H   0  0  0  0  0  0  0  0  0  0  0  0
   -0.4053    0.5834   -1.7862 H   0  0  0  0  0  0  0  0  0  0  0  0
   -2.0163    1.2900   -1.8426 H   0  0  0  0  0  0  0  0  0  0  0  0
   -0.5102   -1.0800    0.6640 H   0  0  0  0  0  0  0  0  0  0  0  0
    2.6009    2.7732    2.9093 O   0  0  0  0  0  0  0  0  0  0  0  0
    1.6800    3.0862    2.8965 H   0  0  0  0  0  0  0  0  0  0  0  0
    2.7847    2.5325    3.8224 H   0  0  0  0  0  0  0  0  0  0  0  0
   -2.1935    1.7680    3.4635 O   0  0  0  0  0  0  0  0  0  0  0  0
   -1.8470    0.8755    3.6471 H   0  0  0  0  0  0  0  0  0  0  0  0
   -2.9133    1.9150    4.0827 H   0  0  0  0  0  0  0  0  0  0  0  0
    3.5416    1.0787    0.9513 O   0  0  0  0  0  0  0  0  0  0  0  0
    4.4571    1.3421    0.8288 H   0  0  0  0  0  0  0  0  0  0  0  0
    3.1685    1.7016    1.6063 H   0  0  0  0  0  0  0  0  0  0  0  0
   -0.0870    3.5035    3.0660 O   0  0  0  0  0  0  0  0  0  0  0  0
   -0.4759    4.3661    2.9046 H   0  0  0  0  0  0  0  0  0  0  0  0
   -0.8326    2.8880    3.2106 H   0  0  0  0  0  0  0  0  0  0  0  0
   -2.1808   -3.2327    3.7880 O   0  0  0  0  0  0  0  0  0  0  0  0
   -3.0131   -3.3512    3.3217 H   0  0  0  0  0  0  0  0  0  0  0  0
   -1.5916   -3.9368    3.4981 H   0  0  0  0  0  0  0  0  0  0  0  0
   -1.0429   -0.7242    3.9139 O   0  0  0  0  0  0  0  0  0  0  0  0
   -1.5160   -1.5768    3.9012 H   0  0  0  0  0  0  0  0  0  0  0  0
   -0.3693   -0.7988    4.5979 H   0  0  0  0  0  0  0  0  0  0  0  0
    2.6646   -1.4562    1.4360 O   0  0  0  0  0  0  0  0  0  0  0  0
    3.0634   -0.5703    1.3043 H   0  0  0  0  0  0  0  0  0  0  0  0
    2.9205   -1.9869    0.6773 H   0  0  0  0  0  0  0  0  0  0  0  0
  1  2  1  0  0  0  0
  2  3  1  0  0  0  0
  3  4  1  0  0  0  0
  4  5  1  0  0  0  0
  5  6  2  0  0  0  0
  5  7  4  0  0  0  0
  1  8  1  0  0  0  0
  1  9  1  0  0  0  0
  2 10  1  0  0  0  0
  2 11  1  0  0  0  0
  3 12  1  0  0  0  0
  3 13  1  0  0  0  0
  4 14  1  0  0  0  0
  4 15  1  0  0  0  0
  1 16  1  0  0  0  0
 17 18  1  0  0  0  0
 17 19  1  0  0  0  0
 20 21  1  0  0  0  0
 20 22  1  0  0  0  0
 23 24  1  0  0  0  0
 23 25  1  0  0  0  0
 26 27  1  0  0  0  0
 26 28  1  0  0  0  0
 29 30  1  0  0  0  0
 29 31  1  0  0  0  0
 32 33  1  0  0  0  0
 32 34  1  0  0  0  0
 35 36  1  0  0  0  0
 35 37  1  0  0  0  0
M  END
