 xtb: 6.7.1 (edcfbbe)
          06092518003D

 34 26  0     0  0            999 V2000
    1.0502   -0.8655    0.2403 H   0  0  0  0  0  0  0  0  0  0  0  0
    0.1680   -0.2689    0.0040 C   0  0  0  0  0  0  0  0  0  0  0  0
    0.7730   -0.2105   -1.9956 H   0  0  0  0  0  0  0  0  0  0  0  0
   -0.7017   -0.9279   -0.0418 H   0  0  0  0  0  0  0  0  0  0  0  0
    0.3842    0.4126   -1.2902 N   0  0  0  0  0  0  0  0  0  0  0  0
   -0.1623    0.3237    2.0653 H   0  0  0  0  0  0  0  0  0  0  0  0
   -0.0147    0.7851    1.0907 C   0  0  0  0  0  0  0  0  0  0  0  0
    1.7824    2.0751    0.1429 O   0  0  0  0  0  0  0  0  0  0  0  0
    1.1952    1.7514    1.2112 C   0  0  0  0  0  0  0  0  0  0  0  0
    1.0691    1.1841   -1.0389 H   0  0  0  0  0  0  0  0  0  0  0  0
    1.4943    2.1645    2.3433 O   0  0  0  0  0  0  0  0  0  0  0  0
   -0.4865    0.8506   -1.6496 H   0  0  0  0  0  0  0  0  0  0  0  0
   -0.8873    1.4055    0.8793 H   0  0  0  0  0  0  0  0  0  0  0  0
   -2.0755   -2.7741   -0.2667 O   0  0  0  0  0  0  0  0  0  0  0  0
   -2.8964   -2.6303   -0.7728 H   0  0  0  0  0  0  0  0  0  0  0  0
   -1.5933   -3.4369   -0.7932 H   0  0  0  0  0  0  0  0  0  0  0  0
   -1.7906    1.7610   -2.4231 O   0  0  0  0  0  0  0  0  0  0  0  0
   -2.7342    1.6539   -2.2718 H   0  0  0  0  0  0  0  0  0  0  0  0
   -1.6288    2.6908   -2.6033 H   0  0  0  0  0  0  0  0  0  0  0  0
   -1.0000   -4.4914   -2.1953 O   0  0  0  0  0  0  0  0  0  0  0  0
   -0.1007   -4.6803   -2.4772 H   0  0  0  0  0  0  0  0  0  0  0  0
   -1.4677   -4.1242   -2.9642 H   0  0  0  0  0  0  0  0  0  0  0  0
   -4.1780   -2.7850   -2.1207 O   0  0  0  0  0  0  0  0  0  0  0  0
   -3.6219   -2.9607   -2.8998 H   0  0  0  0  0  0  0  0  0  0  0  0
   -4.8378   -3.4834   -2.0941 H   0  0  0  0  0  0  0  0  0  0  0  0
   -2.4708   -3.3030   -4.3431 O   0  0  0  0  0  0  0  0  0  0  0  0
   -2.1521   -2.4784   -4.7269 H   0  0  0  0  0  0  0  0  0  0  0  0
   -2.7747   -3.8557   -5.0702 H   0  0  0  0  0  0  0  0  0  0  0  0
   -2.0423   -3.0810    4.6976 O   0  0  0  0  0  0  0  0  0  0  0  0
   -2.2503   -3.3972    3.7977 H   0  0  0  0  0  0  0  0  0  0  0  0
   -1.0945   -3.2052    4.8026 H   0  0  0  0  0  0  0  0  0  0  0  0
   -2.6150   -4.0193    2.1265 O   0  0  0  0  0  0  0  0  0  0  0  0
   -2.3762   -3.5125    1.3200 H   0  0  0  0  0  0  0  0  0  0  0  0
   -3.5213   -4.3134    1.9975 H   0  0  0  0  0  0  0  0  0  0  0  0
  1  2  1  0  0  0  0
  2  4  1  0  0  0  0
  2  5  1  0  0  0  0
  3  5  1  0  0  0  0
  2  7  1  0  0  0  0
  6  7  1  0  0  0  0
  7  9  1  0  0  0  0
  8  9  4  0  0  0  0
  5 10  1  0  0  0  0
  9 11  2  0  0  0  0
  5 12  1  0  0  0  0
  7 13  1  0  0  0  0
 14 15  1  0  0  0  0
 14 16  1  0  0  0  0
 17 18  1  0  0  0  0
 17 19  1  0  0  0  0
 20 21  1  0  0  0  0
 20 22  1  0  0  0  0
 23 24  1  0  0  0  0
 23 25  1  0  0  0  0
 26 27  1  0  0  0  0
 26 28  1  0  0  0  0
 29 30  1  0  0  0  0
 29 31  1  0  0  0  0
 32 33  1  0  0  0  0
 32 34  1  0  0  0  0
M  END
