          34
  Built with Packmol                                             
  H            1.511317       -0.306828       -0.555014
  C            0.423564       -0.532721       -0.609717
  H            0.153518        0.482840       -2.377127
  H            0.306225       -1.519929       -1.108019
  N           -0.266872        0.473091       -1.420552
  H            0.312435       -1.513062        1.312585
  C           -0.165166       -0.646649        0.806799
  O            0.750464        1.631323        1.241066
  C            0.056943        0.562514        1.678499
  H           -0.170369        1.427689       -1.011410
  O           -0.378051        0.562370        2.818531
  H           -1.279945        0.228297       -1.503809
  H           -1.254063       -0.848936        0.728169
  O            0.067430       -3.496786       -3.561049
  H           -0.522219       -4.289139       -3.489625
  H           -0.028962       -3.036434       -2.689615
  O            2.395271       -1.934913       -5.731745
  H            1.717907       -1.458597       -6.274802
  H            2.575674       -1.326993       -4.971152
  O            2.549780       -4.364652       -1.811308
  H            2.998442       -3.538535       -1.500111
  H            1.909867       -4.054849       -2.500617
  O           -0.588408       -0.028824       -5.395978
  H            0.390665       -0.042064       -5.248155
  H           -0.970566        0.184638       -4.507720
  O           -0.603151       -2.336023       -5.304768
  H           -1.184674       -2.001700       -4.576297
  H           -1.229525       -2.740596       -5.956373
  O           -1.672593       -3.862752       -1.248355
  H           -1.695953       -2.872992       -1.269308
  H           -0.884325       -4.080550       -0.689955
  O            1.710187       -0.995939       -2.909522
  H            2.029369       -1.859664       -2.545223
  H            0.949132       -1.239436       -3.494431
