          37
  Built with Packmol                                             
  N            0.064952       -0.170366        2.240690
  C           -0.425087       -0.283877        0.868279
  C            0.367730        0.641149       -0.071166
  C           -0.134429        0.597594       -1.523145
  C            0.096668       -0.713488       -2.230733
  O            0.727246       -1.739965       -1.628533
  O           -0.270635       -0.838959       -3.387000
  H            1.072330       -0.447205        2.286531
  H           -0.048728        0.810713        2.583748
  H           -1.501047       -0.002735        0.840683
  H           -0.338388       -1.340879        0.545678
  H            1.449826        0.389794       -0.041707
  H            0.245710        1.683089        0.295720
  H           -1.217927        0.840241       -1.535888
  H            0.400055        1.383318       -2.098747
  H           -0.488277       -0.808425        2.855591
  O           -4.441094       -1.120827       -0.118595
  H           -4.471333       -2.060326        0.192914
  H           -4.100180       -1.177982       -1.046562
  O            1.451066       -1.529744       -6.032832
  H            1.712908       -1.300549       -6.959934
  H            2.254511       -1.326734       -5.490728
  O           -2.237411       -3.027822        0.242034
  H           -2.295312       -2.114101       -0.135287
  H           -2.593344       -2.939410        1.161875
  O            3.181990       -0.968611        2.741275
  H            3.296376       -1.943159        2.607918
  H            3.723611       -0.554654        2.023013
  O           -1.725375       -1.714387        4.747877
  H           -1.570957       -0.736308        4.759133
  H           -2.344627       -1.859073        3.988795
  O            0.469685       -2.084441        4.882681
  H            1.322126       -1.881495        4.421413
  H            0.738632       -2.334392        5.802357
  O           -1.475668       -1.287227        6.890202
  H           -1.203383       -2.236931        6.822868
  H           -1.200648       -1.014295        7.801511
