          37
  Built with Packmol                                             
  N            0.064952       -0.170366        2.240690
  C           -0.425087       -0.283877        0.868279
  C            0.367730        0.641149       -0.071166
  C           -0.134429        0.597594       -1.523145
  C            0.096668       -0.713488       -2.230733
  O            0.727246       -1.739965       -1.628533
  O           -0.270635       -0.838959       -3.387000
  H            1.072330       -0.447205        2.286531
  H           -0.048728        0.810713        2.583748
  H           -1.501047       -0.002735        0.840683
  H           -0.338388       -1.340879        0.545678
  H            1.449826        0.389794       -0.041707
  H            0.245710        1.683089        0.295720
  H           -1.217927        0.840241       -1.535888
  H            0.400055        1.383318       -2.098747
  H           -0.488277       -0.808425        2.855591
  O            1.904948       -0.710286       -5.874713
  H            1.255061       -1.186875       -6.450143
  H            2.784445       -1.088483       -6.127822
  O            3.183567       -0.467729       -3.828891
  H            3.979817       -1.055870       -3.855092
  H            3.472670        0.317827       -3.299803
  O            2.835854        1.830118       -1.156478
  H            3.279815        0.944984       -1.163453
  H            3.191668        2.292455       -1.956637
  O            1.865836        3.714005       -4.125109
  H            1.450963        4.368335       -3.508390
  H            2.763110        3.545803       -3.741415
  O            1.096741        2.233197       -6.662292
  H            1.685512        2.880330       -6.198419
  H            0.275141        2.205305       -6.110198
  O            1.991661        3.862586       -0.971481
  H            1.170224        3.590772       -1.453112
  H            1.865094        3.518785       -0.051484
  O            2.135729        1.567722       -4.519444
  H            1.331166        0.994399       -4.587203
  H            2.756176        1.206136       -5.201291
