          37
  Built with Packmol                                             
  N            0.064952       -0.170366        2.240690
  C           -0.425087       -0.283877        0.868279
  C            0.367730        0.641149       -0.071166
  C           -0.134429        0.597594       -1.523145
  C            0.096668       -0.713488       -2.230733
  O            0.727246       -1.739965       -1.628533
  O           -0.270635       -0.838959       -3.387000
  H            1.072330       -0.447205        2.286531
  H           -0.048728        0.810713        2.583748
  H           -1.501047       -0.002735        0.840683
  H           -0.338388       -1.340879        0.545678
  H            1.449826        0.389794       -0.041707
  H            0.245710        1.683089        0.295720
  H           -1.217927        0.840241       -1.535888
  H            0.400055        1.383318       -2.098747
  H           -0.488277       -0.808425        2.855591
  O           -1.411278        3.915241        0.532613
  H           -2.144191        4.209995        1.129747
  H           -0.590934        4.286264        0.944912
  O            0.123109       -1.963219        5.769386
  H            0.999413       -1.535305        5.941409
  H            0.288919       -2.569203        5.003943
  O           -1.871559       -2.082878        4.853486
  H           -1.856612       -1.169938        5.236799
  H           -2.307882       -1.974393        3.971178
  O            2.212424        3.883080        2.269917
  H            1.431311        4.243542        1.779469
  H            1.818935        3.356279        3.010363
  O            2.145504       -3.452001        1.007204
  H            1.984815       -3.231761        1.959193
  H            2.562668       -2.636540        0.630891
  O           -0.278565       -4.295002        3.446190
  H           -0.541670       -5.063326        2.879564
  H           -1.090495       -3.729825        3.490428
  O           -3.486851        0.935653        2.695930
  H           -3.150110        0.018425        2.856891
  H           -3.080027        1.201449        1.833109
