          37
  Built with Packmol                                             
  N            0.064952       -0.170366        2.240690
  C           -0.425087       -0.283877        0.868279
  C            0.367730        0.641149       -0.071166
  C           -0.134429        0.597594       -1.523145
  C            0.096668       -0.713488       -2.230733
  O            0.727246       -1.739965       -1.628533
  O           -0.270635       -0.838959       -3.387000
  H            1.072330       -0.447205        2.286531
  H           -0.048728        0.810713        2.583748
  H           -1.501047       -0.002735        0.840683
  H           -0.338388       -1.340879        0.545678
  H            1.449826        0.389794       -0.041707
  H            0.245710        1.683089        0.295720
  H           -1.217927        0.840241       -1.535888
  H            0.400055        1.383318       -2.098747
  H           -0.488277       -0.808425        2.855591
  O           -3.257740        0.328753       -0.912978
  H           -3.870119       -0.447451       -0.968750
  H           -3.645728        0.995949       -1.533403
  O           -2.063774       -0.427637       -5.018383
  H           -2.509270       -1.292799       -4.834979
  H           -2.550861       -0.057969       -5.797295
  O           -0.874239       -0.874170       -6.950744
  H           -1.386985       -1.687453       -6.713522
  H           -0.233224       -1.177785       -7.641780
  O           -1.327525       -3.011073       -4.089782
  H           -0.846275       -3.064511       -4.953584
  H           -1.773423       -3.890626       -3.999374
  O           -1.420264       -3.224139       -1.929116
  H           -0.685643       -3.871080       -2.078811
  H           -2.006129       -3.663835       -1.262751
  O           -2.236912        2.521192       -2.883110
  H           -2.010948        1.696561       -3.382644
  H           -1.377084        3.005714       -2.802195
  O           -3.226891       -2.491318        0.781929
  H           -2.276079       -2.392750        0.523371
  H           -3.521603       -1.571218        0.999126
