          37
  Built with Packmol                                             
  N            0.064952       -0.170366        2.240690
  C           -0.425087       -0.283877        0.868279
  C            0.367730        0.641149       -0.071166
  C           -0.134429        0.597594       -1.523145
  C            0.096668       -0.713488       -2.230733
  O            0.727246       -1.739965       -1.628533
  O           -0.270635       -0.838959       -3.387000
  H            1.072330       -0.447205        2.286531
  H           -0.048728        0.810713        2.583748
  H           -1.501047       -0.002735        0.840683
  H           -0.338388       -1.340879        0.545678
  H            1.449826        0.389794       -0.041707
  H            0.245710        1.683089        0.295720
  H           -1.217927        0.840241       -1.535888
  H            0.400055        1.383318       -2.098747
  H           -0.488277       -0.808425        2.855591
  O            0.461261        2.783214       -5.406551
  H           -0.500135        3.020545       -5.407783
  H            0.846565        3.312694       -4.663715
  O           -0.818845        3.597379        4.880133
  H           -1.389272        2.789708        4.826348
  H           -0.121912        3.455228        4.191155
  O           -2.722433        2.350209        3.174911
  H           -2.414192        1.435326        3.395336
  H           -3.624337        2.412251        3.579055
  O            1.432162       -3.566347        4.842344
  H            1.087647       -2.947252        4.150505
  H            0.813914       -3.452243        5.607434
  O            0.920700       -3.226196       -5.022449
  H            0.710167       -3.804068       -4.246337
  H            0.039259       -2.903088       -5.337531
  O           -0.475965       -4.077912        0.684627
  H           -1.434199       -4.322212        0.736753
  H           -0.358519       -3.384228        1.381492
  O           -1.800301       -2.875540       -3.949431
  H           -1.609495       -3.815619       -4.195311
  H           -2.742130       -2.885326       -3.643693
