          37
  Built with Packmol                                             
  N            0.064952       -0.170366        2.240690
  C           -0.425087       -0.283877        0.868279
  C            0.367730        0.641149       -0.071166
  C           -0.134429        0.597594       -1.523145
  C            0.096668       -0.713488       -2.230733
  O            0.727246       -1.739965       -1.628533
  O           -0.270635       -0.838959       -3.387000
  H            1.072330       -0.447205        2.286531
  H           -0.048728        0.810713        2.583748
  H           -1.501047       -0.002735        0.840683
  H           -0.338388       -1.340879        0.545678
  H            1.449826        0.389794       -0.041707
  H            0.245710        1.683089        0.295720
  H           -1.217927        0.840241       -1.535888
  H            0.400055        1.383318       -2.098747
  H           -0.488277       -0.808425        2.855591
  O            3.756942       -2.084153        2.665350
  H            3.448588       -3.004138        2.863228
  H            2.937925       -1.530419        2.721938
  O            3.254722       -2.523531        0.429903
  H            3.080021       -3.498121        0.413617
  H            2.838626       -2.182959       -0.401654
  O           -3.115482       -3.384958        1.015066
  H           -2.182845       -3.063751        1.102383
  H           -3.225012       -4.033132        1.755664
  O            0.705039       -4.066928       -0.788136
  H            0.997929       -4.148503        0.154292
  H           -0.184242       -3.634527       -0.735027
  O            0.204626       -3.180193        2.241367
  H           -0.148661       -2.969034        3.142039
  H           -0.058049       -4.122324        2.086435
  O            0.505314       -3.301492        5.216566
  H            0.602857       -3.424668        6.194280
  H            0.803506       -4.161755        4.827155
  O           -1.869674       -2.538386        5.546865
  H           -1.656223       -3.505209        5.529467
  H           -1.333161       -2.152552        4.809370
