 xtb: 6.7.1 (edcfbbe)
          06092518053D

 37 29  0     0  0            999 V2000
   -0.4855    0.3309    1.6828 N   0  0  0  0  0  0  0  0  0  0  0  0
    0.0144    1.2211    0.6207 C   0  0  0  0  0  0  0  0  0  0  0  0
   -0.4852    0.7745   -0.7495 C   0  0  0  0  0  0  0  0  0  0  0  0
   -0.3425   -0.7353   -0.9949 C   0  0  0  0  0  0  0  0  0  0  0  0
    1.0214   -1.3307   -0.5708 C   0  0  0  0  0  0  0  0  0  0  0  0
    1.8499   -1.5985   -1.4630 O   0  0  0  0  0  0  0  0  0  0  0  0
    1.1946   -1.5348    0.6594 O   0  0  0  0  0  0  0  0  0  0  0  0
   -0.3257    0.7559    2.6202 H   0  0  0  0  0  0  0  0  0  0  0  0
   -1.5113    0.1639    1.5670 H   0  0  0  0  0  0  0  0  0  0  0  0
   -0.3184    2.2391    0.8188 H   0  0  0  0  0  0  0  0  0  0  0  0
    1.1055    1.1938    0.6311 H   0  0  0  0  0  0  0  0  0  0  0  0
    0.0738    1.3230   -1.5082 H   0  0  0  0  0  0  0  0  0  0  0  0
   -1.5405    1.0303   -0.8500 H   0  0  0  0  0  0  0  0  0  0  0  0
   -1.1121   -1.2791   -0.4428 H   0  0  0  0  0  0  0  0  0  0  0  0
   -0.4623   -0.9477   -2.0585 H   0  0  0  0  0  0  0  0  0  0  0  0
    0.0367   -0.5647    1.5767 H   0  0  0  0  0  0  0  0  0  0  0  0
   -3.2159    0.0800    1.4944 O   0  0  0  0  0  0  0  0  0  0  0  0
   -3.6206   -0.1794    2.3265 H   0  0  0  0  0  0  0  0  0  0  0  0
   -3.4133    1.0311    1.3692 H   0  0  0  0  0  0  0  0  0  0  0  0
   -3.6670    2.7516    0.9819 O   0  0  0  0  0  0  0  0  0  0  0  0
   -4.5443    3.1161    1.1339 H   0  0  0  0  0  0  0  0  0  0  0  0
   -3.5783    2.6569    0.0150 H   0  0  0  0  0  0  0  0  0  0  0  0
   -1.4130    3.7734    2.2775 O   0  0  0  0  0  0  0  0  0  0  0  0
   -2.2069    3.4136    1.8399 H   0  0  0  0  0  0  0  0  0  0  0  0
   -1.5830    4.7051    2.4385 H   0  0  0  0  0  0  0  0  0  0  0  0
   -2.2614    3.1020   -3.9988 O   0  0  0  0  0  0  0  0  0  0  0  0
   -1.9847    2.4194   -4.6183 H   0  0  0  0  0  0  0  0  0  0  0  0
   -2.6412    3.8182   -4.5203 H   0  0  0  0  0  0  0  0  0  0  0  0
   -3.7053    2.2344   -1.7154 O   0  0  0  0  0  0  0  0  0  0  0  0
   -4.1102    1.4146   -2.0117 H   0  0  0  0  0  0  0  0  0  0  0  0
   -3.1588    2.5573   -2.4491 H   0  0  0  0  0  0  0  0  0  0  0  0
   -0.2960    1.8866    3.9463 O   0  0  0  0  0  0  0  0  0  0  0  0
   -0.7126    2.6180    3.4469 H   0  0  0  0  0  0  0  0  0  0  0  0
    0.5541    2.2117    4.2520 H   0  0  0  0  0  0  0  0  0  0  0  0
    0.1701    3.6770   -2.6017 O   0  0  0  0  0  0  0  0  0  0  0  0
   -0.6938    3.5103   -3.0143 H   0  0  0  0  0  0  0  0  0  0  0  0
    0.1468    4.5867   -2.2883 H   0  0  0  0  0  0  0  0  0  0  0  0
  1  2  1  0  0  0  0
  2  3  1  0  0  0  0
  3  4  1  0  0  0  0
  4  5  1  0  0  0  0
  5  6  2  0  0  0  0
  5  7  4  0  0  0  0
  1  8  1  0  0  0  0
  1  9  1  0  0  0  0
  2 10  1  0  0  0  0
  2 11  1  0  0  0  0
  3 12  1  0  0  0  0
  3 13  1  0  0  0  0
  4 14  1  0  0  0  0
  4 15  1  0  0  0  0
  1 16  1  0  0  0  0
 17 18  1  0  0  0  0
 17 19  1  0  0  0  0
 20 21  1  0  0  0  0
 20 22  1  0  0  0  0
 23 24  1  0  0  0  0
 23 25  1  0  0  0  0
 26 27  1  0  0  0  0
 26 28  1  0  0  0  0
 29 30  1  0  0  0  0
 29 31  1  0  0  0  0
 32 33  1  0  0  0  0
 32 34  1  0  0  0  0
 35 36  1  0  0  0  0
 35 37  1  0  0  0  0
M  END
