 xtb: 6.7.1 (edcfbbe)
          06092518003D

 37 29  0     0  0            999 V2000
   -0.2808   -0.6277    1.9327 N   0  0  0  0  0  0  0  0  0  0  0  0
   -0.4801   -0.9072    0.4946 C   0  0  0  0  0  0  0  0  0  0  0  0
   -0.1092    0.2533   -0.4188 C   0  0  0  0  0  0  0  0  0  0  0  0
   -0.1438   -0.2621   -1.8513 C   0  0  0  0  0  0  0  0  0  0  0  0
    0.2351    0.7538   -2.9412 C   0  0  0  0  0  0  0  0  0  0  0  0
    0.4387    1.9427   -2.6382 O   0  0  0  0  0  0  0  0  0  0  0  0
    0.3080    0.2837   -4.1130 O   0  0  0  0  0  0  0  0  0  0  0  0
    0.6938   -0.3733    2.1073 H   0  0  0  0  0  0  0  0  0  0  0  0
   -0.8905    0.1277    2.2515 H   0  0  0  0  0  0  0  0  0  0  0  0
   -1.5217   -1.1788    0.3309 H   0  0  0  0  0  0  0  0  0  0  0  0
    0.1455   -1.7583    0.2287 H   0  0  0  0  0  0  0  0  0  0  0  0
    0.8977    0.6200   -0.2121 H   0  0  0  0  0  0  0  0  0  0  0  0
   -0.7947    1.0974   -0.3254 H   0  0  0  0  0  0  0  0  0  0  0  0
   -1.1445   -0.6186   -2.1056 H   0  0  0  0  0  0  0  0  0  0  0  0
    0.5438   -1.1026   -1.9563 H   0  0  0  0  0  0  0  0  0  0  0  0
   -0.5056   -1.5284    2.4368 H   0  0  0  0  0  0  0  0  0  0  0  0
    1.3109   -4.5533    1.8306 O   0  0  0  0  0  0  0  0  0  0  0  0
    0.5644   -4.0496    2.2083 H   0  0  0  0  0  0  0  0  0  0  0  0
    1.0610   -5.4800    1.8737 H   0  0  0  0  0  0  0  0  0  0  0  0
    1.3257   -3.2641   -0.6073 O   0  0  0  0  0  0  0  0  0  0  0  0
    1.5126   -3.8098    0.1820 H   0  0  0  0  0  0  0  0  0  0  0  0
    1.8779   -3.5752   -1.3376 H   0  0  0  0  0  0  0  0  0  0  0  0
   -1.1283   -3.6140   -1.7198 O   0  0  0  0  0  0  0  0  0  0  0  0
   -0.2399   -3.5402   -1.3036 H   0  0  0  0  0  0  0  0  0  0  0  0
   -1.0201   -3.2023   -2.5847 H   0  0  0  0  0  0  0  0  0  0  0  0
   -0.9504   -3.1221    2.7223 O   0  0  0  0  0  0  0  0  0  0  0  0
   -1.5417   -3.2570    1.9474 H   0  0  0  0  0  0  0  0  0  0  0  0
   -1.4672   -3.3325    3.5055 H   0  0  0  0  0  0  0  0  0  0  0  0
    2.2485   -3.6173   -3.2454 O   0  0  0  0  0  0  0  0  0  0  0  0
    1.4308   -3.2308   -3.6106 H   0  0  0  0  0  0  0  0  0  0  0  0
    2.9746   -3.1833   -3.7014 H   0  0  0  0  0  0  0  0  0  0  0  0
   -0.0579   -2.3620   -4.2679 O   0  0  0  0  0  0  0  0  0  0  0  0
    0.0822   -1.3813   -4.2177 H   0  0  0  0  0  0  0  0  0  0  0  0
   -0.3328   -2.5352   -5.1731 H   0  0  0  0  0  0  0  0  0  0  0  0
   -2.6060   -3.3889    0.5900 O   0  0  0  0  0  0  0  0  0  0  0  0
   -2.1154   -3.4507   -0.2523 H   0  0  0  0  0  0  0  0  0  0  0  0
   -3.2950   -4.0563    0.5430 H   0  0  0  0  0  0  0  0  0  0  0  0
  1  2  1  0  0  0  0
  2  3  1  0  0  0  0
  3  4  1  0  0  0  0
  4  5  1  0  0  0  0
  5  6  2  0  0  0  0
  5  7  4  0  0  0  0
  1  8  1  0  0  0  0
  1  9  1  0  0  0  0
  2 10  1  0  0  0  0
  2 11  1  0  0  0  0
  3 12  1  0  0  0  0
  3 13  1  0  0  0  0
  4 14  1  0  0  0  0
  4 15  1  0  0  0  0
  1 16  1  0  0  0  0
 17 18  1  0  0  0  0
 17 19  1  0  0  0  0
 20 21  1  0  0  0  0
 20 22  1  0  0  0  0
 23 24  1  0  0  0  0
 23 25  1  0  0  0  0
 26 27  1  0  0  0  0
 26 28  1  0  0  0  0
 29 30  1  0  0  0  0
 29 31  1  0  0  0  0
 32 33  1  0  0  0  0
 32 34  1  0  0  0  0
 35 36  1  0  0  0  0
 35 37  1  0  0  0  0
M  END
