 xtb: 6.7.1 (edcfbbe)
          06092517583D

 34 26  0     0  0            999 V2000
    0.9808   -0.1381    0.1026 H   0  0  0  0  0  0  0  0  0  0  0  0
    0.2117    0.1274   -0.6217 C   0  0  0  0  0  0  0  0  0  0  0  0
    1.7613    1.2368   -1.5004 H   0  0  0  0  0  0  0  0  0  0  0  0
   -0.0176   -0.7520   -1.2223 H   0  0  0  0  0  0  0  0  0  0  0  0
    0.7170    1.2274   -1.4735 N   0  0  0  0  0  0  0  0  0  0  0  0
   -1.3991   -0.2066    0.7905 H   0  0  0  0  0  0  0  0  0  0  0  0
   -1.0355    0.5841    0.1371 C   0  0  0  0  0  0  0  0  0  0  0  0
   -0.2495    2.8219    0.3859 O   0  0  0  0  0  0  0  0  0  0  0  0
   -0.6903    1.8127    1.0054 C   0  0  0  0  0  0  0  0  0  0  0  0
    0.4179    2.1091   -0.9777 H   0  0  0  0  0  0  0  0  0  0  0  0
   -0.8132    1.7337    2.2393 O   0  0  0  0  0  0  0  0  0  0  0  0
    0.3187    1.2124   -2.4111 H   0  0  0  0  0  0  0  0  0  0  0  0
   -1.8292    0.8696   -0.5549 H   0  0  0  0  0  0  0  0  0  0  0  0
    2.9181   -3.5932    2.9310 O   0  0  0  0  0  0  0  0  0  0  0  0
    2.5054   -3.4182    2.0569 H   0  0  0  0  0  0  0  0  0  0  0  0
    2.2302   -3.4342    3.5837 H   0  0  0  0  0  0  0  0  0  0  0  0
    3.3706    1.4204   -0.9209 O   0  0  0  0  0  0  0  0  0  0  0  0
    3.3982    0.7611   -0.1914 H   0  0  0  0  0  0  0  0  0  0  0  0
    4.2041    1.3485   -1.3933 H   0  0  0  0  0  0  0  0  0  0  0  0
    3.1701   -0.3428    1.1122 O   0  0  0  0  0  0  0  0  0  0  0  0
    3.9256   -0.7439    1.5894 H   0  0  0  0  0  0  0  0  0  0  0  0
    2.7219    0.2224    1.7781 H   0  0  0  0  0  0  0  0  0  0  0  0
    2.0488   -2.7575    0.4758 O   0  0  0  0  0  0  0  0  0  0  0  0
    2.5862   -3.1236   -0.2333 H   0  0  0  0  0  0  0  0  0  0  0  0
    2.4221   -1.8690    0.6634 H   0  0  0  0  0  0  0  0  0  0  0  0
    2.4301    3.3702    0.9434 O   0  0  0  0  0  0  0  0  0  0  0  0
    2.8244    2.8447    0.2219 H   0  0  0  0  0  0  0  0  0  0  0  0
    1.4753    3.4022    0.7575 H   0  0  0  0  0  0  0  0  0  0  0  0
    1.9915    1.4219    2.8066 O   0  0  0  0  0  0  0  0  0  0  0  0
    1.0269    1.4842    2.8623 H   0  0  0  0  0  0  0  0  0  0  0  0
    2.2696    2.2219    2.3066 H   0  0  0  0  0  0  0  0  0  0  0  0
    4.9408   -1.7432    2.6415 O   0  0  0  0  0  0  0  0  0  0  0  0
    5.2115   -1.4358    3.5107 H   0  0  0  0  0  0  0  0  0  0  0  0
    4.3276   -2.4927    2.7909 H   0  0  0  0  0  0  0  0  0  0  0  0
  1  2  1  0  0  0  0
  2  4  1  0  0  0  0
  2  5  1  0  0  0  0
  3  5  1  0  0  0  0
  2  7  1  0  0  0  0
  6  7  1  0  0  0  0
  7  9  1  0  0  0  0
  8  9  4  0  0  0  0
  5 10  1  0  0  0  0
  9 11  2  0  0  0  0
  5 12  1  0  0  0  0
  7 13  1  0  0  0  0
 14 15  1  0  0  0  0
 14 16  1  0  0  0  0
 17 18  1  0  0  0  0
 17 19  1  0  0  0  0
 20 21  1  0  0  0  0
 20 22  1  0  0  0  0
 23 24  1  0  0  0  0
 23 25  1  0  0  0  0
 26 27  1  0  0  0  0
 26 28  1  0  0  0  0
 29 30  1  0  0  0  0
 29 31  1  0  0  0  0
 32 33  1  0  0  0  0
 32 34  1  0  0  0  0
M  END
