          37
  Built with Packmol                                             
  N            0.002605        0.268339        2.349498
  C            0.005610       -0.534268        1.127824
  C           -0.013605        0.360442       -0.117570
  C           -0.006580       -0.484114       -1.399583
  C            0.005309        0.346063       -2.655593
  O            0.015980        1.566588       -2.611145
  O            0.010136       -0.270580       -3.851920
  H            0.843830        0.889238        2.373417
  H           -0.867625        0.846216        2.397033
  H           -0.885896       -1.198618        1.124039
  H            0.917756       -1.170846        1.111005
  H            0.882890        1.016132       -0.103939
  H           -0.924881        0.997831       -0.099780
  H           -0.910028       -1.129127       -1.413513
  H            0.894287       -1.134110       -1.406828
  H            0.030211       -0.369186        3.177055
  O           -2.560757        2.387660        4.654977
  H           -1.883156        1.926356        5.210555
  H           -2.053847        2.723552        3.873420
  O           -0.590026        4.041232        5.276780
  H            0.135617        4.510475        4.793184
  H           -0.160342        3.225438        5.637978
  O            1.707609        3.617320        1.023695
  H            1.858453        2.638653        1.015422
  H            2.139805        3.927913        1.858771
  O           -1.104737        3.719840        0.045837
  H           -1.992705        3.496743        0.423132
  H           -0.771681        4.458400        0.615236
  O            2.556699        2.061271        4.728551
  H            1.905393        2.705829        5.103992
  H            2.434987        2.128222        3.748084
  O           -2.077200        3.095587       -1.900819
  H           -2.615575        3.912743       -2.052541
  H           -1.775086        2.826177       -2.804565
  O           -0.183895        2.923665        2.740976
  H            0.059745        3.867022        2.563980
  H            0.319057        2.687105        3.560544
