 xtb: 6.7.1 (edcfbbe)
          06092518003D

 37 29  0     0  0            999 V2000
    0.0420    0.2026    2.6398 N   0  0  0  0  0  0  0  0  0  0  0  0
   -0.1428   -0.4370    1.3249 C   0  0  0  0  0  0  0  0  0  0  0  0
    0.4337    0.4372    0.2149 C   0  0  0  0  0  0  0  0  0  0  0  0
    0.2532   -0.2273   -1.1491 C   0  0  0  0  0  0  0  0  0  0  0  0
    0.9035    0.5862   -2.2899 C   0  0  0  0  0  0  0  0  0  0  0  0
    0.4740    1.7514   -2.4936 O   0  0  0  0  0  0  0  0  0  0  0  0
    1.8096    0.0430   -2.9490 O   0  0  0  0  0  0  0  0  0  0  0  0
    1.0232    0.5726    2.7251 H   0  0  0  0  0  0  0  0  0  0  0  0
   -0.5992    1.0365    2.7662 H   0  0  0  0  0  0  0  0  0  0  0  0
   -1.2050   -0.6040    1.1423 H   0  0  0  0  0  0  0  0  0  0  0  0
    0.3689   -1.4005    1.3104 H   0  0  0  0  0  0  0  0  0  0  0  0
    1.4995    0.5976    0.3860 H   0  0  0  0  0  0  0  0  0  0  0  0
   -0.0660    1.4047    0.1956 H   0  0  0  0  0  0  0  0  0  0  0  0
   -0.8098   -0.3208   -1.3844 H   0  0  0  0  0  0  0  0  0  0  0  0
    0.7101   -1.2186   -1.1684 H   0  0  0  0  0  0  0  0  0  0  0  0
   -0.1403   -0.4558    3.3964 H   0  0  0  0  0  0  0  0  0  0  0  0
   -3.8932    2.4571    4.4543 O   0  0  0  0  0  0  0  0  0  0  0  0
   -3.8299    1.7361    5.0874 H   0  0  0  0  0  0  0  0  0  0  0  0
   -3.0514    2.4472    3.9570 H   0  0  0  0  0  0  0  0  0  0  0  0
    0.6573    3.6867    4.3948 O   0  0  0  0  0  0  0  0  0  0  0  0
    1.0728    3.8919    3.5391 H   0  0  0  0  0  0  0  0  0  0  0  0
    0.5311    4.5204    4.8530 H   0  0  0  0  0  0  0  0  0  0  0  0
    1.5471    3.8459    1.7518 O   0  0  0  0  0  0  0  0  0  0  0  0
    0.6377    3.8333    1.3916 H   0  0  0  0  0  0  0  0  0  0  0  0
    2.0868    4.3201    1.1157 H   0  0  0  0  0  0  0  0  0  0  0  0
   -1.0867    3.9636    0.9423 O   0  0  0  0  0  0  0  0  0  0  0  0
   -1.3215    3.5106    0.1053 H   0  0  0  0  0  0  0  0  0  0  0  0
   -1.5469    4.8080    0.9314 H   0  0  0  0  0  0  0  0  0  0  0  0
    2.4517    1.4473    2.8222 O   0  0  0  0  0  0  0  0  0  0  0  0
    2.6946    1.6758    3.7250 H   0  0  0  0  0  0  0  0  0  0  0  0
    2.1990    2.2860    2.3918 H   0  0  0  0  0  0  0  0  0  0  0  0
   -1.7138    2.7615   -1.3873 O   0  0  0  0  0  0  0  0  0  0  0  0
   -2.1900    3.1798   -2.1094 H   0  0  0  0  0  0  0  0  0  0  0  0
   -0.8959    2.3782   -1.7906 H   0  0  0  0  0  0  0  0  0  0  0  0
   -1.4112    2.4034    3.1744 O   0  0  0  0  0  0  0  0  0  0  0  0
   -1.4073    2.9308    2.3530 H   0  0  0  0  0  0  0  0  0  0  0  0
   -0.7365    2.8298    3.7470 H   0  0  0  0  0  0  0  0  0  0  0  0
  1  2  1  0  0  0  0
  2  3  1  0  0  0  0
  3  4  1  0  0  0  0
  4  5  1  0  0  0  0
  5  6  4  0  0  0  0
  5  7  2  0  0  0  0
  1  8  1  0  0  0  0
  1  9  1  0  0  0  0
  2 10  1  0  0  0  0
  2 11  1  0  0  0  0
  3 12  1  0  0  0  0
  3 13  1  0  0  0  0
  4 14  1  0  0  0  0
  4 15  1  0  0  0  0
  1 16  1  0  0  0  0
 17 18  1  0  0  0  0
 17 19  1  0  0  0  0
 20 21  1  0  0  0  0
 20 22  1  0  0  0  0
 23 24  1  0  0  0  0
 23 25  1  0  0  0  0
 26 27  1  0  0  0  0
 26 28  1  0  0  0  0
 29 30  1  0  0  0  0
 29 31  1  0  0  0  0
 32 33  1  0  0  0  0
 32 34  1  0  0  0  0
 35 36  1  0  0  0  0
 35 37  1  0  0  0  0
M  END
