 xtb: 6.7.1 (edcfbbe)
          06092518073D

 37 29  0     0  0            999 V2000
    0.2182   -0.5220    1.9446 N   0  0  0  0  0  0  0  0  0  0  0  0
   -0.2531    0.8125    1.5330 C   0  0  0  0  0  0  0  0  0  0  0  0
   -1.0722    0.7254    0.2482 C   0  0  0  0  0  0  0  0  0  0  0  0
   -0.2312    0.5742   -1.0251 C   0  0  0  0  0  0  0  0  0  0  0  0
    0.2116   -0.8538   -1.4082 C   0  0  0  0  0  0  0  0  0  0  0  0
    0.2783   -1.1211   -2.6202 O   0  0  0  0  0  0  0  0  0  0  0  0
    0.5101   -1.6590   -0.4854 O   0  0  0  0  0  0  0  0  0  0  0  0
    1.0702   -0.4695    2.5284 H   0  0  0  0  0  0  0  0  0  0  0  0
   -0.5214   -1.0182    2.4807 H   0  0  0  0  0  0  0  0  0  0  0  0
   -0.8649    1.2342    2.3302 H   0  0  0  0  0  0  0  0  0  0  0  0
    0.6011    1.4724    1.3776 H   0  0  0  0  0  0  0  0  0  0  0  0
   -1.6538    1.6416    0.1483 H   0  0  0  0  0  0  0  0  0  0  0  0
   -1.7726   -0.1086    0.3149 H   0  0  0  0  0  0  0  0  0  0  0  0
    0.6853    1.1650   -0.9446 H   0  0  0  0  0  0  0  0  0  0  0  0
   -0.7807    0.9485   -1.8916 H   0  0  0  0  0  0  0  0  0  0  0  0
    0.4254   -1.0702    1.0735 H   0  0  0  0  0  0  0  0  0  0  0  0
   -1.7282   -1.7377    3.5175 O   0  0  0  0  0  0  0  0  0  0  0  0
   -1.3812   -2.5896    3.8397 H   0  0  0  0  0  0  0  0  0  0  0  0
   -2.6368   -1.8990    3.2526 H   0  0  0  0  0  0  0  0  0  0  0  0
    4.5749   -1.6110   -5.4600 O   0  0  0  0  0  0  0  0  0  0  0  0
    3.8457   -1.0013   -5.6092 H   0  0  0  0  0  0  0  0  0  0  0  0
    4.2404   -2.3049   -4.8832 H   0  0  0  0  0  0  0  0  0  0  0  0
   -0.6910   -4.2246    4.1965 O   0  0  0  0  0  0  0  0  0  0  0  0
    0.1322   -4.2832    4.6918 H   0  0  0  0  0  0  0  0  0  0  0  0
   -0.6022   -4.8032    3.4329 H   0  0  0  0  0  0  0  0  0  0  0  0
    1.6496   -4.1970   -0.5352 O   0  0  0  0  0  0  0  0  0  0  0  0
    1.1765   -3.3470   -0.6257 H   0  0  0  0  0  0  0  0  0  0  0  0
    2.5321   -3.9673   -0.2254 H   0  0  0  0  0  0  0  0  0  0  0  0
    1.0658    3.7124    2.4189 O   0  0  0  0  0  0  0  0  0  0  0  0
    0.8845    4.5623    2.0092 H   0  0  0  0  0  0  0  0  0  0  0  0
    0.2800    3.4913    2.9455 H   0  0  0  0  0  0  0  0  0  0  0  0
    2.5799   -0.3841    3.4746 O   0  0  0  0  0  0  0  0  0  0  0  0
    3.3872   -0.0779    3.0535 H   0  0  0  0  0  0  0  0  0  0  0  0
    2.5778   -0.0569    4.3793 H   0  0  0  0  0  0  0  0  0  0  0  0
   -1.2997    3.0073    3.9054 O   0  0  0  0  0  0  0  0  0  0  0  0
   -2.1309    3.4898    3.8689 H   0  0  0  0  0  0  0  0  0  0  0  0
   -1.1974    2.6902    4.8082 H   0  0  0  0  0  0  0  0  0  0  0  0
  1  2  1  0  0  0  0
  2  3  1  0  0  0  0
  3  4  1  0  0  0  0
  4  5  1  0  0  0  0
  5  6  2  0  0  0  0
  5  7  4  0  0  0  0
  1  8  1  0  0  0  0
  1  9  1  0  0  0  0
  2 10  1  0  0  0  0
  2 11  1  0  0  0  0
  3 12  1  0  0  0  0
  3 13  1  0  0  0  0
  4 14  1  0  0  0  0
  4 15  1  0  0  0  0
  1 16  1  0  0  0  0
 17 18  1  0  0  0  0
 17 19  1  0  0  0  0
 20 21  1  0  0  0  0
 20 22  1  0  0  0  0
 23 24  1  0  0  0  0
 23 25  1  0  0  0  0
 26 27  1  0  0  0  0
 26 28  1  0  0  0  0
 29 30  1  0  0  0  0
 29 31  1  0  0  0  0
 32 33  1  0  0  0  0
 32 34  1  0  0  0  0
 35 36  1  0  0  0  0
 35 37  1  0  0  0  0
M  END
