 xtb: 6.7.1 (edcfbbe)
          06092518003D

 37 29  0     0  0            999 V2000
   -0.5449   -0.1213    2.9217 N   0  0  0  0  0  0  0  0  0  0  0  0
   -0.4898   -0.7408    1.5868 C   0  0  0  0  0  0  0  0  0  0  0  0
   -0.1942    0.3199    0.5335 C   0  0  0  0  0  0  0  0  0  0  0  0
   -0.1438   -0.2608   -0.8719 C   0  0  0  0  0  0  0  0  0  0  0  0
    0.2310    0.7700   -1.9535 C   0  0  0  0  0  0  0  0  0  0  0  0
    0.4094    1.9636   -1.6276 O   0  0  0  0  0  0  0  0  0  0  0  0
    0.3361    0.3400   -3.1290 O   0  0  0  0  0  0  0  0  0  0  0  0
    0.2940    0.4531    3.0801 H   0  0  0  0  0  0  0  0  0  0  0  0
   -1.3352    0.5494    2.9816 H   0  0  0  0  0  0  0  0  0  0  0  0
   -1.4433   -1.2232    1.3737 H   0  0  0  0  0  0  0  0  0  0  0  0
    0.2905   -1.5017    1.5693 H   0  0  0  0  0  0  0  0  0  0  0  0
    0.7701    0.7849    0.7398 H   0  0  0  0  0  0  0  0  0  0  0  0
   -0.9548    1.1021    0.5600 H   0  0  0  0  0  0  0  0  0  0  0  0
   -1.1095   -0.6771   -1.1683 H   0  0  0  0  0  0  0  0  0  0  0  0
    0.5898   -1.0662   -0.9446 H   0  0  0  0  0  0  0  0  0  0  0  0
   -0.6358   -0.8459    3.6775 H   0  0  0  0  0  0  0  0  0  0  0  0
    1.3347    3.3552    0.5408 O   0  0  0  0  0  0  0  0  0  0  0  0
    1.0226    2.8425   -0.2298 H   0  0  0  0  0  0  0  0  0  0  0  0
    1.1916    4.2777    0.3103 H   0  0  0  0  0  0  0  0  0  0  0  0
   -0.6402   -4.0728    2.8913 O   0  0  0  0  0  0  0  0  0  0  0  0
   -0.6545   -5.0305    2.9643 H   0  0  0  0  0  0  0  0  0  0  0  0
    0.1317   -3.8452    2.3464 H   0  0  0  0  0  0  0  0  0  0  0  0
   -0.8759   -2.0983    4.7672 O   0  0  0  0  0  0  0  0  0  0  0  0
   -1.7551   -2.1646    5.1503 H   0  0  0  0  0  0  0  0  0  0  0  0
   -0.7733   -2.8687    4.1745 H   0  0  0  0  0  0  0  0  0  0  0  0
    0.8486   -2.3065   -3.4747 O   0  0  0  0  0  0  0  0  0  0  0  0
    0.7205   -2.4905   -4.4103 H   0  0  0  0  0  0  0  0  0  0  0  0
    0.6657   -1.3473   -3.3708 H   0  0  0  0  0  0  0  0  0  0  0  0
   -1.9951    2.2148    3.2471 O   0  0  0  0  0  0  0  0  0  0  0  0
   -1.0801    2.5425    3.1975 H   0  0  0  0  0  0  0  0  0  0  0  0
   -2.3515    2.5142    4.0881 H   0  0  0  0  0  0  0  0  0  0  0  0
    1.6741   -3.3933    1.4339 O   0  0  0  0  0  0  0  0  0  0  0  0
    2.5321   -3.2924    1.8594 H   0  0  0  0  0  0  0  0  0  0  0  0
    1.8303   -3.7538    0.5576 H   0  0  0  0  0  0  0  0  0  0  0  0
    0.8180    2.4112    3.0922 O   0  0  0  0  0  0  0  0  0  0  0  0
    1.4651    2.8470    3.6542 H   0  0  0  0  0  0  0  0  0  0  0  0
    1.0040    2.7064    2.1828 H   0  0  0  0  0  0  0  0  0  0  0  0
  1  2  1  0  0  0  0
  2  3  1  0  0  0  0
  3  4  1  0  0  0  0
  4  5  1  0  0  0  0
  5  6  4  0  0  0  0
  5  7  4  0  0  0  0
  1  8  1  0  0  0  0
  1  9  1  0  0  0  0
  2 10  1  0  0  0  0
  2 11  1  0  0  0  0
  3 12  1  0  0  0  0
  3 13  1  0  0  0  0
  4 14  1  0  0  0  0
  4 15  1  0  0  0  0
  1 16  1  0  0  0  0
 17 18  1  0  0  0  0
 17 19  1  0  0  0  0
 20 21  1  0  0  0  0
 20 22  1  0  0  0  0
 23 24  1  0  0  0  0
 23 25  1  0  0  0  0
 26 27  1  0  0  0  0
 26 28  1  0  0  0  0
 29 30  1  0  0  0  0
 29 31  1  0  0  0  0
 32 33  1  0  0  0  0
 32 34  1  0  0  0  0
 35 36  1  0  0  0  0
 35 37  1  0  0  0  0
M  END
