          37
  Built with Packmol                                             
  N            0.064952       -0.170366        2.240690
  C           -0.425087       -0.283877        0.868279
  C            0.367730        0.641149       -0.071166
  C           -0.134429        0.597594       -1.523145
  C            0.096668       -0.713488       -2.230733
  O            0.727246       -1.739965       -1.628533
  O           -0.270635       -0.838959       -3.387000
  H            1.072330       -0.447205        2.286531
  H           -0.048728        0.810713        2.583748
  H           -1.501047       -0.002735        0.840683
  H           -0.338388       -1.340879        0.545678
  H            1.449826        0.389794       -0.041707
  H            0.245710        1.683089        0.295720
  H           -1.217927        0.840241       -1.535888
  H            0.400055        1.383318       -2.098747
  H           -0.488277       -0.808425        2.855591
  O           -0.529614       -4.835472       -0.407083
  H           -0.917247       -3.924315       -0.395051
  H            0.089730       -4.851823        0.365419
  O            0.287966       -4.359290        3.787301
  H            0.957939       -3.863922        3.252178
  H            0.025384       -3.727123        4.502863
  O            1.785531       -2.328890        4.580154
  H            1.345297       -2.246067        5.463299
  H            2.753979       -2.274834        4.779651
  O           -2.116849       -1.961373        5.552175
  H           -1.732820       -2.873342        5.514156
  H           -1.673039       -1.474273        4.813001
  O           -1.986449        2.979842        3.555507
  H           -1.113679        2.528687        3.679366
  H           -2.541833        2.656882        4.309071
  O            1.944408       -3.237241        1.019089
  H            2.081453       -4.144374        1.391833
  H            2.655709       -2.688026        1.435054
  O           -1.562315        4.225159        1.278002
  H           -1.455636        5.190447        1.084485
  H           -0.880239        4.033988        1.969985
