 xtb: 6.7.1 (edcfbbe)
          06092518043D

 37 29  0     0  0            999 V2000
   -0.7689    0.5083    2.4235 N   0  0  0  0  0  0  0  0  0  0  0  0
   -0.9449    0.2796    0.9791 C   0  0  0  0  0  0  0  0  0  0  0  0
    0.3896    0.4060    0.2526 C   0  0  0  0  0  0  0  0  0  0  0  0
    0.2385    0.1723   -1.2467 C   0  0  0  0  0  0  0  0  0  0  0  0
   -0.1433   -1.2611   -1.6624 C   0  0  0  0  0  0  0  0  0  0  0  0
    0.1319   -2.2146   -0.8848 O   0  0  0  0  0  0  0  0  0  0  0  0
   -0.6890   -1.4059   -2.7719 O   0  0  0  0  0  0  0  0  0  0  0  0
   -0.2197    1.3751    2.5692 H   0  0  0  0  0  0  0  0  0  0  0  0
   -1.6865    0.6100    2.8973 H   0  0  0  0  0  0  0  0  0  0  0  0
   -1.6449    1.0133    0.5768 H   0  0  0  0  0  0  0  0  0  0  0  0
   -1.3523   -0.7174    0.8080 H   0  0  0  0  0  0  0  0  0  0  0  0
    1.0981   -0.3197    0.6498 H   0  0  0  0  0  0  0  0  0  0  0  0
    0.7908    1.4083    0.4082 H   0  0  0  0  0  0  0  0  0  0  0  0
   -0.5128    0.8333   -1.6839 H   0  0  0  0  0  0  0  0  0  0  0  0
    1.1849    0.3729   -1.7565 H   0  0  0  0  0  0  0  0  0  0  0  0
   -0.2534   -0.2970    2.8579 H   0  0  0  0  0  0  0  0  0  0  0  0
   -0.5639   -4.5432   -2.1575 O   0  0  0  0  0  0  0  0  0  0  0  0
   -0.3136   -3.7261   -1.6697 H   0  0  0  0  0  0  0  0  0  0  0  0
   -0.9390   -4.2232   -2.9841 H   0  0  0  0  0  0  0  0  0  0  0  0
    0.5334   -1.6455    3.4865 O   0  0  0  0  0  0  0  0  0  0  0  0
    0.9992   -2.0286    2.7170 H   0  0  0  0  0  0  0  0  0  0  0  0
    1.2289   -1.3931    4.1225 H   0  0  0  0  0  0  0  0  0  0  0  0
    2.3850   -1.0138    5.4565 O   0  0  0  0  0  0  0  0  0  0  0  0
    1.9796   -0.6428    6.2473 H   0  0  0  0  0  0  0  0  0  0  0  0
    2.9540   -1.7349    5.7397 H   0  0  0  0  0  0  0  0  0  0  0  0
   -1.3850   -3.3501    4.6032 O   0  0  0  0  0  0  0  0  0  0  0  0
   -1.6819   -3.8806    3.8594 H   0  0  0  0  0  0  0  0  0  0  0  0
   -0.6912   -2.7601    4.2481 H   0  0  0  0  0  0  0  0  0  0  0  0
   -3.2206    0.8601    3.7297 O   0  0  0  0  0  0  0  0  0  0  0  0
   -3.1630    0.9502    4.6862 H   0  0  0  0  0  0  0  0  0  0  0  0
   -3.9670    0.2859    3.5398 H   0  0  0  0  0  0  0  0  0  0  0  0
    1.7718   -2.6197    1.2535 O   0  0  0  0  0  0  0  0  0  0  0  0
    2.0925   -3.5225    1.1894 H   0  0  0  0  0  0  0  0  0  0  0  0
    1.1815   -2.4897    0.4834 H   0  0  0  0  0  0  0  0  0  0  0  0
    0.7234    2.8896    2.6581 O   0  0  0  0  0  0  0  0  0  0  0  0
    1.6010    2.9326    3.0499 H   0  0  0  0  0  0  0  0  0  0  0  0
    0.2742    3.7167    2.8556 H   0  0  0  0  0  0  0  0  0  0  0  0
  1  2  1  0  0  0  0
  2  3  1  0  0  0  0
  3  4  1  0  0  0  0
  4  5  1  0  0  0  0
  5  6  4  0  0  0  0
  5  7  2  0  0  0  0
  1  8  1  0  0  0  0
  1  9  1  0  0  0  0
  2 10  1  0  0  0  0
  2 11  1  0  0  0  0
  3 12  1  0  0  0  0
  3 13  1  0  0  0  0
  4 14  1  0  0  0  0
  4 15  1  0  0  0  0
  1 16  1  0  0  0  0
 17 18  1  0  0  0  0
 17 19  1  0  0  0  0
 20 21  1  0  0  0  0
 20 22  1  0  0  0  0
 23 24  1  0  0  0  0
 23 25  1  0  0  0  0
 26 27  1  0  0  0  0
 26 28  1  0  0  0  0
 29 30  1  0  0  0  0
 29 31  1  0  0  0  0
 32 33  1  0  0  0  0
 32 34  1  0  0  0  0
 35 36  1  0  0  0  0
 35 37  1  0  0  0  0
M  END
