 xtb: 6.7.1 (edcfbbe)
          06092517533D

 34 26  0     0  0            999 V2000
   -0.1376    0.0229    0.9044 C   0  0  0  0  0  0  0  0  0  0  0  0
   -0.1309    1.0030    2.0911 C   0  0  0  0  0  0  0  0  0  0  0  0
   -0.7890    0.6228    3.1052 O   0  0  0  0  0  0  0  0  0  0  0  0
    0.5054    2.0622    2.0188 O   0  0  0  0  0  0  0  0  0  0  0  0
    0.4062    0.6322   -0.3753 C   0  0  0  0  0  0  0  0  0  0  0  0
    0.6553   -0.4219   -1.3774 N   0  0  0  0  0  0  0  0  0  0  0  0
    0.4713   -0.8278    1.2189 H   0  0  0  0  0  0  0  0  0  0  0  0
   -1.1629   -0.3260    0.7759 H   0  0  0  0  0  0  0  0  0  0  0  0
   -0.3183    1.3437   -0.7696 H   0  0  0  0  0  0  0  0  0  0  0  0
    1.3242    1.1762   -0.1470 H   0  0  0  0  0  0  0  0  0  0  0  0
   -0.2028   -1.0319   -1.4595 H   0  0  0  0  0  0  0  0  0  0  0  0
    1.4278   -1.0187   -1.0778 H   0  0  0  0  0  0  0  0  0  0  0  0
    0.8786   -0.0128   -2.3084 H   0  0  0  0  0  0  0  0  0  0  0  0
   -1.5838    0.6234    5.7430 O   0  0  0  0  0  0  0  0  0  0  0  0
   -1.2703    0.7957    4.8367 H   0  0  0  0  0  0  0  0  0  0  0  0
   -0.7944    0.5350    6.2867 H   0  0  0  0  0  0  0  0  0  0  0  0
   -0.9943   -2.1116    3.3628 O   0  0  0  0  0  0  0  0  0  0  0  0
   -1.7853   -2.1852    3.9198 H   0  0  0  0  0  0  0  0  0  0  0  0
   -0.8710   -1.1470    3.2588 H   0  0  0  0  0  0  0  0  0  0  0  0
   -0.8739   -3.4333    0.9538 O   0  0  0  0  0  0  0  0  0  0  0  0
   -0.9086   -2.9380    1.7955 H   0  0  0  0  0  0  0  0  0  0  0  0
   -1.2119   -4.3108    1.1535 H   0  0  0  0  0  0  0  0  0  0  0  0
   -1.4563   -2.1210   -1.3875 O   0  0  0  0  0  0  0  0  0  0  0  0
   -1.5338   -2.8063   -2.0583 H   0  0  0  0  0  0  0  0  0  0  0  0
   -1.3258   -2.5782   -0.5337 H   0  0  0  0  0  0  0  0  0  0  0  0
   -3.2022   -1.5073    5.0475 O   0  0  0  0  0  0  0  0  0  0  0  0
   -2.6937   -0.7364    5.3702 H   0  0  0  0  0  0  0  0  0  0  0  0
   -3.7529   -1.7975    5.7806 H   0  0  0  0  0  0  0  0  0  0  0  0
    1.1885    0.6955   -3.8597 O   0  0  0  0  0  0  0  0  0  0  0  0
    1.7408    1.4693   -3.9996 H   0  0  0  0  0  0  0  0  0  0  0  0
    0.4737    0.7239   -4.5024 H   0  0  0  0  0  0  0  0  0  0  0  0
   -3.4689   -0.0726    2.5566 O   0  0  0  0  0  0  0  0  0  0  0  0
   -2.5801    0.2798    2.7301 H   0  0  0  0  0  0  0  0  0  0  0  0
   -3.6508   -0.6397    3.3220 H   0  0  0  0  0  0  0  0  0  0  0  0
  1  2  1  0  0  0  0
  2  3  4  0  0  0  0
  2  4  2  0  0  0  0
  1  5  1  0  0  0  0
  5  6  1  0  0  0  0
  1  7  1  0  0  0  0
  1  8  1  0  0  0  0
  5  9  1  0  0  0  0
  5 10  1  0  0  0  0
  6 11  1  0  0  0  0
  6 12  1  0  0  0  0
  6 13  1  0  0  0  0
 14 15  1  0  0  0  0
 14 16  1  0  0  0  0
 17 18  1  0  0  0  0
 17 19  1  0  0  0  0
 20 21  1  0  0  0  0
 20 22  1  0  0  0  0
 23 24  1  0  0  0  0
 23 25  1  0  0  0  0
 26 27  1  0  0  0  0
 26 28  1  0  0  0  0
 29 30  1  0  0  0  0
 29 31  1  0  0  0  0
 32 33  1  0  0  0  0
 32 34  1  0  0  0  0
M  END
