          34
  Built with Packmol                                             
  C            0.000717       -0.522558        0.678044
  C            0.000155        0.093927        2.050368
  O           -0.000195       -0.630131        3.032262
  O           -0.000797        1.431559        2.216433
  C            0.000989        0.525311       -0.443260
  N           -0.000301       -0.116591       -1.756652
  H            0.902593       -1.162928        0.578888
  H           -0.902640       -1.160238        0.579017
  H           -0.902002        1.167413       -0.351037
  H            0.903666        1.168949       -0.351720
  H           -0.857069       -0.705532       -1.867523
  H            0.853228       -0.710069       -1.867795
  H            0.001656        0.620887       -2.497026
  O           -3.280194        2.980455       -3.169222
  H           -3.398608        2.274678       -2.484775
  H           -2.969413        2.495342       -3.974637
  O           -1.726208        2.773928        2.890589
  H           -1.842020        3.751090        2.779445
  H           -2.502584        2.492657        3.437161
  O            0.405882        3.323093       -0.139999
  H            0.354462        4.306515       -0.244155
  H            1.156037        3.179241        0.490228
  O            1.387150        3.689298       -2.612905
  H            1.018786        4.596896       -2.467354
  H            1.916413        3.502574       -1.797045
  O            1.801938        2.443395       -5.082855
  H            1.805252        1.662571       -4.473828
  H            1.118326        3.051101       -4.703407
  O           -0.758823        3.297165       -2.348975
  H           -1.207743        2.463716       -2.639567
  H           -1.487654        3.965279       -2.293812
  O            1.268191        3.185717        2.691275
  H            0.346803        3.511978        2.850054
  H            1.793420        3.547266        3.448923
