 xtb: 6.7.1 (edcfbbe)
          06092517523D

 34 26  0     0  0            999 V2000
    0.3153   -0.6421    0.1548 C   0  0  0  0  0  0  0  0  0  0  0  0
    0.4144   -0.6623    1.7026 C   0  0  0  0  0  0  0  0  0  0  0  0
    0.1098   -1.7221    2.2804 O   0  0  0  0  0  0  0  0  0  0  0  0
    0.8057    0.3844    2.2737 O   0  0  0  0  0  0  0  0  0  0  0  0
   -0.3958    0.6011   -0.3566 C   0  0  0  0  0  0  0  0  0  0  0  0
   -0.3682    0.6694   -1.8295 N   0  0  0  0  0  0  0  0  0  0  0  0
    1.3402   -0.6652   -0.2218 H   0  0  0  0  0  0  0  0  0  0  0  0
   -0.1934   -1.5610   -0.1382 H   0  0  0  0  0  0  0  0  0  0  0  0
   -1.4273    0.6043   -0.0029 H   0  0  0  0  0  0  0  0  0  0  0  0
    0.1114    1.4783    0.0419 H   0  0  0  0  0  0  0  0  0  0  0  0
   -0.9091   -0.0909   -2.2394 H   0  0  0  0  0  0  0  0  0  0  0  0
    0.6258    0.6004   -2.1645 H   0  0  0  0  0  0  0  0  0  0  0  0
   -0.7424    1.6073   -2.1536 H   0  0  0  0  0  0  0  0  0  0  0  0
   -3.7728    3.9168   -2.0514 O   0  0  0  0  0  0  0  0  0  0  0  0
   -4.2057    3.9629   -1.1938 H   0  0  0  0  0  0  0  0  0  0  0  0
   -4.4221    4.1537   -2.7191 H   0  0  0  0  0  0  0  0  0  0  0  0
   -3.1834    3.6488    3.3421 O   0  0  0  0  0  0  0  0  0  0  0  0
   -2.3044    4.0062    3.1787 H   0  0  0  0  0  0  0  0  0  0  0  0
   -3.0603    2.7603    3.6892 H   0  0  0  0  0  0  0  0  0  0  0  0
    0.7778    4.2249   -0.6851 O   0  0  0  0  0  0  0  0  0  0  0  0
    0.8220    5.1205   -0.3396 H   0  0  0  0  0  0  0  0  0  0  0  0
    1.1369    3.6476    0.0143 H   0  0  0  0  0  0  0  0  0  0  0  0
    1.7874    3.3441   -3.1480 O   0  0  0  0  0  0  0  0  0  0  0  0
    0.9336    3.3811   -3.5982 H   0  0  0  0  0  0  0  0  0  0  0  0
    1.6080    3.7060   -2.2616 H   0  0  0  0  0  0  0  0  0  0  0  0
    2.2053    0.7151   -2.7200 O   0  0  0  0  0  0  0  0  0  0  0  0
    2.5020    0.2998   -3.5335 H   0  0  0  0  0  0  0  0  0  0  0  0
    2.2032    1.6869   -2.8861 H   0  0  0  0  0  0  0  0  0  0  0  0
   -1.0939    3.1642   -2.4907 O   0  0  0  0  0  0  0  0  0  0  0  0
   -2.0177    3.4353   -2.3814 H   0  0  0  0  0  0  0  0  0  0  0  0
   -0.5852    3.6216   -1.7984 H   0  0  0  0  0  0  0  0  0  0  0  0
    1.8780    2.6628    1.2904 O   0  0  0  0  0  0  0  0  0  0  0  0
    1.4774    1.8614    1.6907 H   0  0  0  0  0  0  0  0  0  0  0  0
    2.8272    2.5723    1.4099 H   0  0  0  0  0  0  0  0  0  0  0  0
  1  2  1  0  0  0  0
  2  3  2  0  0  0  0
  2  4  4  0  0  0  0
  1  5  1  0  0  0  0
  5  6  1  0  0  0  0
  1  7  1  0  0  0  0
  1  8  1  0  0  0  0
  5  9  1  0  0  0  0
  5 10  1  0  0  0  0
  6 11  1  0  0  0  0
  6 12  1  0  0  0  0
  6 13  1  0  0  0  0
 14 15  1  0  0  0  0
 14 16  1  0  0  0  0
 17 18  1  0  0  0  0
 17 19  1  0  0  0  0
 20 21  1  0  0  0  0
 20 22  1  0  0  0  0
 23 24  1  0  0  0  0
 23 25  1  0  0  0  0
 26 27  1  0  0  0  0
 26 28  1  0  0  0  0
 29 30  1  0  0  0  0
 29 31  1  0  0  0  0
 32 33  1  0  0  0  0
 32 34  1  0  0  0  0
M  END
