22

N        0.3985000000      0.9550100000      0.3529800000                 
C        1.0242600000      2.1186500000     -0.2713300000                 
C        0.4367100000      2.4879500000     -1.6514500000                 
C        0.6676700000      1.4505800000     -2.7682800000                 
C       -0.2246600000      0.2361600000     -2.7343500000                 
O       -0.0572400000     -0.7239500000     -3.6619400000                 
O       -1.1287600000      0.1274500000     -1.9227500000                 
H        0.7911900000      0.8402400000      1.3144000000                 
H       -0.6340900000      1.0968200000      0.4313000000                 
H        0.8844600000      2.9953700000      0.3986100000                 
H        2.1177400000      1.9425100000     -0.3671300000                 
H        0.9777800000      3.4091600000     -1.9605200000                 
H       -0.6405500000      2.7485600000     -1.5783100000                 
H        1.7349900000      1.1445700000     -2.7559800000                 
H        0.4672600000      1.9429500000     -3.7441600000                 
H        0.6226500000      0.0872200000     -0.1814000000                 
O       -0.6111646105      0.1661487357      2.6335447458                 
H       -0.0545026962     -0.6050597237      2.3580211073                 
H       -1.3975683337     -0.2411192672      3.0766173899                 
O       -2.8382510868     -2.0747569828     -3.2663913205                 
H       -3.1028942087     -1.8511298928     -4.1940244337                 
H       -2.2439116110     -1.3317669639     -2.9919139459                 
