         163
  Built with Packmol                                             
  H            1.420531       -0.693439       -0.457594
  C            0.315625       -0.640915       -0.572756
  H            0.379447        0.341256       -2.375102
  H           -0.020204       -1.577267       -1.069783
  N           -0.042833        0.489322       -1.430827
  H           -0.104344       -1.525775        1.342275
  C           -0.356072       -0.581772        0.809877
  O           -0.155039        1.845644        1.277794
  C            0.099005        0.578296        1.654298
  H            0.334594        1.383914       -1.050468
  O            0.669992        0.373338        2.712012
  H           -1.081518        0.548347       -1.533033
  H           -1.459185       -0.540948        0.693308
  O           -3.471574       -3.875910        1.141069
  H           -2.590641       -4.306460        1.279615
  H           -3.405471       -3.458162        0.245675
  O            3.931481       -2.694023       -2.296371
  H            3.757170       -1.922876       -1.700083
  H            3.543017       -3.469688       -1.818823
  O            0.986858       -4.598026        1.506768
  H            1.335861       -3.677062        1.609885
  H            0.103981       -4.481725        1.073622
  O            0.650518        5.289133        0.803655
  H            0.617431        5.042387        1.762108
  H            1.610025        5.231617        0.565639
  O            0.792362        4.755043        3.731552
  H            1.092463        3.819979        3.604254
  H            0.413865        4.771756        4.646469
  O           -2.578097       -2.122706        1.494161
  H           -2.537626       -2.598275        2.361805
  H           -1.817536       -2.487620        0.975511
  O            2.263514       -1.672380       -3.004596
  H            2.194255       -0.883105       -2.410577
  H            1.954684       -2.430315       -2.447126
  O            2.302934       -0.617124        2.120498
  H            1.773205       -1.448233        2.024294
  H            2.050721       -0.069804        1.334723
  O           -0.640834       -4.740505        3.389430
  H            0.148019       -4.145548        3.323492
  H           -1.376836       -4.223493        2.975168
  O           -3.622675       -0.280216       -3.531559
  H           -2.690713        0.050705       -3.481072
  H           -3.682811       -0.962402       -2.816284
  O            0.598662       -4.443771       -2.586698
  H            1.587398       -4.389246       -2.592870
  H            0.297876       -3.512234       -2.736297
  O           -3.169810        3.339795       -0.866964
  H           -3.372754        2.395220       -1.084226
  H           -2.483198        3.604766       -1.529509
  O            0.898603        2.980159        0.012872
  H            1.147144        3.316885        0.910343
  H            0.741714        3.797315       -0.524022
  O           -1.943292       -4.148212       -0.928505
  H           -1.566406       -3.233247       -0.966007
  H           -1.343372       -4.638568       -0.311853
  O           -2.663969        2.434745        2.072164
  H           -2.473911        3.367401        1.798957
  H           -1.977594        2.231929        2.756538
  O           -0.687128        3.366418       -4.218646
  H           -1.431373        3.896133       -3.836399
  H            0.115054        3.930552       -4.081278
  O            0.233779       -2.150652        3.268274
  H           -0.733154       -2.345101        3.179731
  H            0.269930       -1.286636        3.750750
  O           -0.585852        1.269112        6.350265
  H           -1.226535        1.764864        5.780734
  H           -0.883142        0.326135        6.295253
  O            2.591663        0.718907        3.789992
  H            3.258702       -0.012652        3.767829
  H            2.892106        1.306315        4.528435
  O           -0.565847        3.866388       -2.034307
  H            0.047805        4.624177       -2.206929
  H           -0.039792        3.061929       -2.272476
  O            3.114535       -2.106839        0.695690
  H            3.477923       -2.389953        1.572278
  H            3.421009       -2.804343        0.063096
  O            1.465067       -0.925390        5.771326
  H            0.978553       -0.388870        6.446649
  H            2.179325       -0.322934        5.443460
  O           -4.020353        0.619890        1.168591
  H           -3.897687        1.525633        0.787549
  H           -3.356556        0.567085        1.901529
  O            4.249590       -0.568040        1.278653
  H            3.847464       -0.171621        0.465169
  H            4.150574        0.132846        1.971161
  O           -1.623504       -1.498085        4.755176
  H           -2.230217       -2.238424        4.501388
  H           -2.120691       -0.996816        5.449544
  O            2.009772        2.912228       -1.790180
  H            2.996240        2.866727       -1.716549
  H            1.836856        3.746682       -2.294560
  O            2.576777       -0.179100       -4.297153
  H            2.588524       -0.934958       -4.936802
  H            3.232515        0.466180       -4.663533
  O           -1.958029       -2.428416       -4.718424
  H           -2.558134       -1.674146       -4.491355
  H           -1.393437       -2.083177       -5.455078
  O           -1.009136        4.196228        0.583630
  H           -1.241929        4.577612       -0.300092
  H           -1.298801        4.883847        1.234696
  O           -2.319601        1.881908       -2.771675
  H           -1.686187        1.779416       -3.525924
  H           -3.012068        2.502709       -3.111832
  O           -1.824729       -0.679057        2.654123
  H           -2.648435       -0.785276        3.193415
  H           -1.576978        0.273329        2.764553
  O            3.238049        0.885012       -1.816301
  H            3.708836        0.067371       -1.515580
  H            2.346493        0.829324       -1.388936
  O           -3.111892        1.032899        3.884489
  H           -3.362440        1.947304        4.170324
  H           -2.413572        0.754127        4.528887
  O           -0.951809        4.058497        3.022648
  H           -0.458531        3.478693        2.389311
  H           -0.962913        3.546787        3.870375
  O            0.063767        2.702354       -5.948026
  H           -0.443873        1.931514       -5.589253
  H            0.935968        2.664204       -5.480669
  O           -3.470109        0.189023       -0.704925
  H           -4.239944       -0.379595       -0.959167
  H           -3.078813        0.477125       -1.567767
  O            1.142153        2.334126        4.941684
  H            1.426891        1.867724        5.767520
  H            0.348401        2.859560        5.214611
  O           -1.493891        0.243387       -5.374082
  H           -1.414384       -0.241330       -6.233930
  H           -2.184105        0.933519       -5.541220
  O           -2.322796       -3.224249       -2.863271
  H           -1.904714       -2.337791       -2.721812
  H           -1.609582       -3.771507       -3.278539
  O           -0.426985        0.598184        4.367564
  H            0.494578        0.457980        4.701741
  H           -0.409132        1.501456        3.962111
  O            1.291295        2.288460       -3.548943
  H            1.998864        1.595929       -3.567860
  H            0.455650        1.794794       -3.745423
  O            0.595204       -2.821002       -5.083904
  H           -0.102286       -3.403502       -4.690442
  H            1.284857       -2.747586       -4.377079
  O            2.477123        2.208657        2.458244
  H            1.489233        2.186084        2.522846
  H            2.761030        2.797154        3.202341
  O           -1.880668        2.264634        0.240400
  H           -2.024505        1.291379        0.127726
  H           -1.212975        2.498602       -0.452463
  O            0.636751       -0.002814       -4.763331
  H            1.089859        0.676418       -5.323641
  H            0.629402       -0.820433       -5.321953
  O            2.192334       -1.796187        3.948549
  H            3.042745       -1.978781        3.475188
  H            2.176440       -2.450714        4.691487
  O            0.231452       -2.503772        5.336959
  H           -0.475951       -3.115308        5.011051
  H           -0.199431       -1.993099        6.067825
  O           -0.371486       -1.636064       -3.795684
  H           -0.906417       -0.802970       -3.775351
  H            0.269796       -1.537458       -3.047588
  O           -2.764627       -1.677741       -0.588462
  H           -3.277051       -2.171447       -1.277147
  H           -2.073328       -1.185616       -1.098886
  O            1.288174       -3.649631       -0.390083
  H            1.450750       -2.682366       -0.253785
  H            0.365655       -3.698316       -0.746737
