         163
  Built with Packmol                                             
  H            1.420531       -0.693439       -0.457594
  C            0.315625       -0.640915       -0.572756
  H            0.379447        0.341256       -2.375102
  H           -0.020204       -1.577267       -1.069783
  N           -0.042833        0.489322       -1.430827
  H           -0.104344       -1.525775        1.342275
  C           -0.356072       -0.581772        0.809877
  O           -0.155039        1.845644        1.277794
  C            0.099005        0.578296        1.654298
  H            0.334594        1.383914       -1.050468
  O            0.669992        0.373338        2.712012
  H           -1.081518        0.548347       -1.533033
  H           -1.459185       -0.540948        0.693308
  O            1.244841       -3.021842        1.111125
  H            0.553917       -3.729270        1.163860
  H            1.125086       -2.624619        0.211966
  O            3.169603       -3.955732        1.964846
  H            2.519929       -4.699185        1.888613
  H            3.250644       -3.601628        1.043621
  O            0.102257       -5.346108       -0.126316
  H           -0.676471       -5.853611        0.215202
  H            0.010602       -5.384391       -1.111580
  O            0.617647       -3.358010        3.128157
  H            1.604989       -3.354990        3.052278
  H            0.361978       -2.402682        3.077215
  O           -0.267893       -3.065947       -4.893003
  H           -1.010443       -2.683146       -5.424692
  H           -0.715924       -3.600898       -4.190358
  O            3.809218        0.478148        0.507797
  H            3.711199        1.442527        0.305371
  H            4.518981        0.440260        1.197299
  O           -2.103363        2.592523        3.297044
  H           -2.977306        2.210080        3.031391
  H           -1.445840        1.885752        3.076245
  O           -1.479441        1.612584       -4.914446
  H           -0.995288        2.207629       -5.540647
  H           -1.710831        0.817098       -5.456916
  O           -1.859752       -0.738822        5.060083
  H           -2.478783        0.033741        5.083697
  H           -1.207106       -0.555954        5.782042
  O           -2.799021        0.124628       -3.732833
  H           -3.119321       -0.574173       -3.108577
  H           -1.824802        0.180251       -3.564265
  O           -1.992775       -0.156603        3.153216
  H           -2.774820       -0.572110        2.710078
  H           -1.209595       -0.532094        2.677559
  O           -2.695045       -2.111417        0.658252
  H           -3.450910       -1.925681        1.270445
  H           -3.048964       -2.784759        0.024245
  O            2.578655       -4.103766       -0.770835
  H            1.883271       -4.437383       -0.149745
  H            2.169733       -4.186880       -1.668882
  O            0.819682        1.496398       -6.054770
  H            0.467261        0.852970       -5.389630
  H            1.001574        2.318089       -5.532895
  O           -0.711641       -3.575782       -0.546102
  H           -1.487426       -4.191157       -0.537076
  H           -0.933979       -2.886344        0.129068
  O            2.326566        0.670785       -2.075693
  H            2.153506        1.645513       -2.099460
  H            2.808677        0.525120       -1.223071
  O           -3.223149        0.981861       -1.441552
  H           -4.072665        0.649918       -1.827229
  H           -2.756201        1.410768       -2.202217
  O           -0.682431       -3.112517        4.627821
  H           -1.355998       -3.837159        4.670405
  H           -0.941947       -2.489660        5.352607
  O           -0.579294       -0.780820       -5.863495
  H            0.362695       -1.039856       -6.025260
  H           -0.673672       -0.791137       -4.877797
  O           -2.442631        1.660506        0.804749
  H           -2.388691        1.008189        1.547840
  H           -1.745824        1.366537        0.165488
  O            4.231561        1.088006       -2.510183
  H            3.926348        1.899809       -2.988127
  H            4.548697        1.420949       -1.633150
  O            1.805318        3.249458       -3.240962
  H            2.738315        3.507872       -3.032759
  H            1.263006        3.692734       -2.540951
  O           -0.907697       -2.247514       -2.731054
  H           -1.437496       -1.451201       -2.474520
  H           -0.168777       -1.886682       -3.282788
  O           -0.053720        2.225537       -2.887884
  H           -0.983421        1.903500       -2.999946
  H            0.430835        1.862182       -3.671334
  O           -2.456757        3.253100       -2.920278
  H           -3.328066        3.309403       -2.453093
  H           -2.647581        2.729707       -3.738971
  O            1.029436        3.572580       -0.568558
  H            1.504093        4.423768       -0.393080
  H            1.746011        2.889579       -0.593902
  O           -0.987642        3.934498        4.271985
  H           -0.302005        4.641470        4.168522
  H           -0.469033        3.093266        4.335122
  O            4.170922        2.921796        2.806841
  H            3.209591        2.983118        3.036388
  H            4.182675        2.584376        1.875915
  O           -3.524216       -0.920845       -0.717567
  H           -2.564148       -0.839552       -0.946198
  H           -3.920201       -1.412386       -1.480585
  O           -1.208434        1.442032        5.717897
  H           -1.869528        1.934954        5.169633
  H           -0.613840        2.145496        6.081503
  O            2.907121       -0.938604        2.916500
  H            3.456064       -1.415176        3.588922
  H            1.978666       -1.226985        3.104703
  O           -4.074662       -0.026458        1.260529
  H           -4.274388        0.561324        2.032043
  H           -4.092535        0.578388        0.476656
  O            1.675692        3.103741        4.970256
  H            1.494486        3.290302        4.014761
  H            1.157651        2.282643        5.165306
  O            2.996453        1.009724        3.701923
  H            3.348569        1.006134        2.776390
  H            2.101568        1.426765        3.625299
  O           -2.216721       -3.706192       -2.333041
  H           -2.706077       -2.917640       -1.987604
  H           -2.488787       -3.770437       -3.283023
  O            0.984431       -4.121698       -3.277086
  H            0.443780       -3.711201       -2.556114
  H            1.362993       -3.352132       -3.772135
  O            3.464611       -0.927891       -2.450575
  H            3.849344       -1.573464       -3.095422
  H            4.091933       -0.938743       -1.684441
  O            1.274715       -2.835874        4.953216
  H            2.127858       -2.389023        4.722822
  H            1.002862       -2.423998        5.811743
  O            2.256556        1.133799       -4.034819
  H            2.960994        0.442213       -3.956800
  H            2.681774        1.863898       -4.551305
  O            2.027456        0.948979        1.280423
  H            1.734394        1.128626        0.351739
  H            2.066273       -0.038621        1.341679
  O            1.778963       -2.283010       -2.135472
  H            2.380899       -2.201241       -1.353424
  H            1.513110       -1.351812       -2.342364
  O            0.152075        4.355067        2.243280
  H            0.429494        4.393859        1.293467
  H            0.218908        3.396416        2.482312
  O            1.437015       -1.453264       -4.391215
  H            2.413535       -1.387513       -4.541864
  H            1.163554       -0.537166       -4.133154
  O            0.095149        3.770855       -4.161727
  H            0.183205        4.381172       -4.936562
  H           -0.876120        3.588430       -4.098721
  O           -0.896672        3.615111       -1.104973
  H           -0.685488        3.915115       -2.024761
  H           -1.358813        2.747825       -1.226854
  O            0.733640       -0.508885        5.302891
  H            0.423069        0.422350        5.172668
  H            0.460511       -0.979497        4.475523
  O           -2.446518       -2.536639        2.885520
  H           -1.538934       -2.614728        2.497183
  H           -2.292507       -2.247045        3.819880
  O           -2.870642        3.407465       -0.068016
  H           -2.779558        4.158878       -0.706525
  H           -3.445940        2.751847       -0.536856
  O           -2.074319        4.044433        1.817071
  H           -1.517664        3.291525        1.494774
  H           -1.622712        4.853851        1.468494
  O            2.329688        3.788807        1.434465
  H            1.836259        2.930816        1.403005
  H            3.007446        3.711698        0.716614
