 xtb: 6.7.1 (edcfbbe)
          06112502413D

163112  0     0  0            999 V2000
    1.2790    0.3305    0.1936 H   0  0  0  0  0  0  0  0  0  0  0  0
    0.2442    0.1281   -0.0814 C   0  0  0  0  0  0  0  0  0  0  0  0
    0.1909    1.3159   -1.8202 H   0  0  0  0  0  0  0  0  0  0  0  0
    0.1986   -0.7891   -0.6645 H   0  0  0  0  0  0  0  0  0  0  0  0
   -0.2797    1.2261   -0.9023 N   0  0  0  0  0  0  0  0  0  0  0  0
   -0.5528   -1.0491    1.5435 H   0  0  0  0  0  0  0  0  0  0  0  0
   -0.6124   -0.0289    1.1693 C   0  0  0  0  0  0  0  0  0  0  0  0
   -1.1584    1.2939    3.0705 O   0  0  0  0  0  0  0  0  0  0  0  0
   -0.2129    0.8179    2.3676 C   0  0  0  0  0  0  0  0  0  0  0  0
   -0.1758    2.1286   -0.4102 H   0  0  0  0  0  0  0  0  0  0  0  0
    0.9879    0.9829    2.6571 O   0  0  0  0  0  0  0  0  0  0  0  0
   -1.2962    1.0955   -1.0825 H   0  0  0  0  0  0  0  0  0  0  0  0
   -1.6591    0.1637    0.9415 H   0  0  0  0  0  0  0  0  0  0  0  0
   -1.2872   -5.9909    0.1489 O   0  0  0  0  0  0  0  0  0  0  0  0
   -1.1068   -5.8134    1.0990 H   0  0  0  0  0  0  0  0  0  0  0  0
   -2.2155   -6.2277    0.0867 H   0  0  0  0  0  0  0  0  0  0  0  0
    4.3698   -4.4147   -0.1795 O   0  0  0  0  0  0  0  0  0  0  0  0
    4.2580   -3.6675    0.4312 H   0  0  0  0  0  0  0  0  0  0  0  0
    3.7686   -4.2113   -0.9117 H   0  0  0  0  0  0  0  0  0  0  0  0
    1.0336   -3.1107    1.8050 O   0  0  0  0  0  0  0  0  0  0  0  0
    0.6337   -2.5155    2.4709 H   0  0  0  0  0  0  0  0  0  0  0  0
    0.4886   -3.0638    0.9907 H   0  0  0  0  0  0  0  0  0  0  0  0
    1.4864    5.2842    1.6027 O   0  0  0  0  0  0  0  0  0  0  0  0
    2.2817    4.8912    2.0019 H   0  0  0  0  0  0  0  0  0  0  0  0
    1.2166    5.9986    2.1844 H   0  0  0  0  0  0  0  0  0  0  0  0
    3.8057    4.2187    2.7775 O   0  0  0  0  0  0  0  0  0  0  0  0
    3.7172    3.9144    3.7110 H   0  0  0  0  0  0  0  0  0  0  0  0
    4.6710    4.6315    2.7110 H   0  0  0  0  0  0  0  0  0  0  0  0
   -2.5100   -2.8322    2.0814 O   0  0  0  0  0  0  0  0  0  0  0  0
   -2.7429   -2.0056    2.5436 H   0  0  0  0  0  0  0  0  0  0  0  0
   -2.5036   -2.5765    1.1433 H   0  0  0  0  0  0  0  0  0  0  0  0
    1.3547   -1.0341   -3.2058 O   0  0  0  0  0  0  0  0  0  0  0  0
    1.9355   -0.2587   -3.0743 H   0  0  0  0  0  0  0  0  0  0  0  0
    1.7122   -1.7219   -2.6089 H   0  0  0  0  0  0  0  0  0  0  0  0
    2.8924   -0.8088    3.5002 O   0  0  0  0  0  0  0  0  0  0  0  0
    2.4961   -1.5889    3.9284 H   0  0  0  0  0  0  0  0  0  0  0  0
    2.1490   -0.2477    3.2054 H   0  0  0  0  0  0  0  0  0  0  0  0
   -0.7693   -4.9378    2.5770 O   0  0  0  0  0  0  0  0  0  0  0  0
    0.0571   -4.4691    2.3189 H   0  0  0  0  0  0  0  0  0  0  0  0
   -1.4510   -4.2387    2.4948 H   0  0  0  0  0  0  0  0  0  0  0  0
   -4.6096   -0.9109   -3.7811 O   0  0  0  0  0  0  0  0  0  0  0  0
   -3.9682   -0.1855   -3.9730 H   0  0  0  0  0  0  0  0  0  0  0  0
   -4.0751   -1.7170   -3.8693 H   0  0  0  0  0  0  0  0  0  0  0  0
   -0.3618   -4.4063   -3.1714 O   0  0  0  0  0  0  0  0  0  0  0  0
   -0.0533   -5.3079   -3.0720 H   0  0  0  0  0  0  0  0  0  0  0  0
   -0.2650   -3.9854   -2.2893 H   0  0  0  0  0  0  0  0  0  0  0  0
   -3.0114    3.2899   -2.9884 O   0  0  0  0  0  0  0  0  0  0  0  0
   -3.1374    2.6670   -2.2397 H   0  0  0  0  0  0  0  0  0  0  0  0
   -2.2462    3.8236   -2.7169 H   0  0  0  0  0  0  0  0  0  0  0  0
    1.8861    2.9290   -1.0708 O   0  0  0  0  0  0  0  0  0  0  0  0
    2.3218    2.7679   -0.2161 H   0  0  0  0  0  0  0  0  0  0  0  0
    2.1465    3.8016   -1.3812 H   0  0  0  0  0  0  0  0  0  0  0  0
   -0.3401   -3.5252   -0.5510 O   0  0  0  0  0  0  0  0  0  0  0  0
   -1.1436   -2.9658   -0.5667 H   0  0  0  0  0  0  0  0  0  0  0  0
   -0.6435   -4.4235   -0.3196 H   0  0  0  0  0  0  0  0  0  0  0  0
   -2.8172    2.7388    1.4214 O   0  0  0  0  0  0  0  0  0  0  0  0
   -2.1329    3.3179    1.0289 H   0  0  0  0  0  0  0  0  0  0  0  0
   -2.3115    2.1915    2.0516 H   0  0  0  0  0  0  0  0  0  0  0  0
   -1.1222    3.6327   -5.2643 O   0  0  0  0  0  0  0  0  0  0  0  0
   -1.9876    3.7695   -4.8641 H   0  0  0  0  0  0  0  0  0  0  0  0
   -0.6419    3.0538   -4.6262 H   0  0  0  0  0  0  0  0  0  0  0  0
   -0.1783   -1.6396    3.8060 O   0  0  0  0  0  0  0  0  0  0  0  0
   -0.8723   -2.2135    4.1829 H   0  0  0  0  0  0  0  0  0  0  0  0
    0.2532   -1.2354    4.5724 H   0  0  0  0  0  0  0  0  0  0  0  0
    1.1807    3.9946    6.4539 O   0  0  0  0  0  0  0  0  0  0  0  0
    1.0324    3.8795    7.3967 H   0  0  0  0  0  0  0  0  0  0  0  0
    0.4845    3.4772    6.0035 H   0  0  0  0  0  0  0  0  0  0  0  0
    3.6214    0.6018    5.6393 O   0  0  0  0  0  0  0  0  0  0  0  0
    3.4746    0.1378    4.7769 H   0  0  0  0  0  0  0  0  0  0  0  0
    4.4635    0.2837    5.9759 H   0  0  0  0  0  0  0  0  0  0  0  0
   -0.5074    4.3204   -2.2628 O   0  0  0  0  0  0  0  0  0  0  0  0
    0.2593    4.8724   -2.4680 H   0  0  0  0  0  0  0  0  0  0  0  0
   -0.2471    3.4365   -2.5971 H   0  0  0  0  0  0  0  0  0  0  0  0
    3.4046   -2.0636    1.1341 O   0  0  0  0  0  0  0  0  0  0  0  0
    3.5513   -1.5486    1.9464 H   0  0  0  0  0  0  0  0  0  0  0  0
    2.5587   -2.5314    1.3410 H   0  0  0  0  0  0  0  0  0  0  0  0
    1.1854   -0.7649    6.1569 O   0  0  0  0  0  0  0  0  0  0  0  0
    1.5670   -1.6539    6.0288 H   0  0  0  0  0  0  0  0  0  0  0  0
    1.9386   -0.1545    6.1015 H   0  0  0  0  0  0  0  0  0  0  0  0
   -5.0753    0.9831    1.7955 O   0  0  0  0  0  0  0  0  0  0  0  0
   -4.5213    1.7677    1.6780 H   0  0  0  0  0  0  0  0  0  0  0  0
   -4.5327    0.3805    2.3364 H   0  0  0  0  0  0  0  0  0  0  0  0
    4.3677    0.1793   -0.2962 O   0  0  0  0  0  0  0  0  0  0  0  0
    4.1134   -0.6621    0.1142 H   0  0  0  0  0  0  0  0  0  0  0  0
    4.0052    0.8686    0.2919 H   0  0  0  0  0  0  0  0  0  0  0  0
   -2.2048   -3.0998    5.0463 O   0  0  0  0  0  0  0  0  0  0  0  0
   -2.7524   -3.3300    4.2870 H   0  0  0  0  0  0  0  0  0  0  0  0
   -2.6580   -2.3660    5.4997 H   0  0  0  0  0  0  0  0  0  0  0  0
    2.1286    5.1678   -2.8702 O   0  0  0  0  0  0  0  0  0  0  0  0
    2.5702    5.9615   -3.1749 H   0  0  0  0  0  0  0  0  0  0  0  0
    2.3889    4.4513   -3.4790 H   0  0  0  0  0  0  0  0  0  0  0  0
    2.8556    2.9351   -4.3740 O   0  0  0  0  0  0  0  0  0  0  0  0
    3.0026    2.6594   -5.2802 H   0  0  0  0  0  0  0  0  0  0  0  0
    3.1551    2.1998   -3.7967 H   0  0  0  0  0  0  0  0  0  0  0  0
   -1.4948   -1.8837   -6.2073 O   0  0  0  0  0  0  0  0  0  0  0  0
   -2.0073   -2.2025   -5.4271 H   0  0  0  0  0  0  0  0  0  0  0  0
   -0.6124   -2.2936   -6.0797 H   0  0  0  0  0  0  0  0  0  0  0  0
   -0.5366    3.7675    0.3540 O   0  0  0  0  0  0  0  0  0  0  0  0
   -0.5686    4.0872   -0.5802 H   0  0  0  0  0  0  0  0  0  0  0  0
    0.1754    4.2669    0.7777 H   0  0  0  0  0  0  0  0  0  0  0  0
   -2.6769    0.9107   -4.3224 O   0  0  0  0  0  0  0  0  0  0  0  0
   -2.6464    0.9555   -5.2882 H   0  0  0  0  0  0  0  0  0  0  0  0
   -2.8008    1.8136   -3.9741 H   0  0  0  0  0  0  0  0  0  0  0  0
   -3.2208   -0.4663    3.3305 O   0  0  0  0  0  0  0  0  0  0  0  0
   -3.3666   -0.5588    4.2859 H   0  0  0  0  0  0  0  0  0  0  0  0
   -2.4577    0.1433    3.2463 H   0  0  0  0  0  0  0  0  0  0  0  0
    3.0146    1.0032   -2.5146 O   0  0  0  0  0  0  0  0  0  0  0  0
    3.6477    0.6297   -1.8767 H   0  0  0  0  0  0  0  0  0  0  0  0
    2.5113    1.6731   -1.9829 H   0  0  0  0  0  0  0  0  0  0  0  0
   -3.3461   -0.8386    6.0978 O   0  0  0  0  0  0  0  0  0  0  0  0
   -4.0445   -0.7256    6.7467 H   0  0  0  0  0  0  0  0  0  0  0  0
   -2.5507   -0.3728    6.4573 H   0  0  0  0  0  0  0  0  0  0  0  0
   -0.9313    2.6069    5.3450 O   0  0  0  0  0  0  0  0  0  0  0  0
   -0.9050    2.1204    4.4771 H   0  0  0  0  0  0  0  0  0  0  0  0
   -1.6836    3.2024    5.2766 H   0  0  0  0  0  0  0  0  0  0  0  0
   -0.6180    2.1263   -7.4761 O   0  0  0  0  0  0  0  0  0  0  0  0
   -1.4375    1.6063   -7.5385 H   0  0  0  0  0  0  0  0  0  0  0  0
   -0.8007    2.7995   -6.7854 H   0  0  0  0  0  0  0  0  0  0  0  0
   -4.8626   -0.6330   -1.1629 O   0  0  0  0  0  0  0  0  0  0  0  0
   -5.7607   -0.4449   -0.8905 H   0  0  0  0  0  0  0  0  0  0  0  0
   -4.8609   -0.7409   -2.1514 H   0  0  0  0  0  0  0  0  0  0  0  0
    3.6087    3.3532    5.3036 O   0  0  0  0  0  0  0  0  0  0  0  0
    3.6027    2.3811    5.4044 H   0  0  0  0  0  0  0  0  0  0  0  0
    2.7795    3.6569    5.7183 H   0  0  0  0  0  0  0  0  0  0  0  0
   -2.7506    0.3760   -7.0909 O   0  0  0  0  0  0  0  0  0  0  0  0
   -2.2972   -0.4660   -6.8778 H   0  0  0  0  0  0  0  0  0  0  0  0
   -3.5429    0.1410   -7.5769 H   0  0  0  0  0  0  0  0  0  0  0  0
   -2.5298   -2.7636   -3.8876 O   0  0  0  0  0  0  0  0  0  0  0  0
   -2.0427   -2.0318   -3.4039 H   0  0  0  0  0  0  0  0  0  0  0  0
   -1.9955   -3.5496   -3.7111 H   0  0  0  0  0  0  0  0  0  0  0  0
   -1.1830    0.4277    6.9981 O   0  0  0  0  0  0  0  0  0  0  0  0
   -0.3685   -0.0756    6.8248 H   0  0  0  0  0  0  0  0  0  0  0  0
   -1.0975    1.2334    6.4496 H   0  0  0  0  0  0  0  0  0  0  0  0
    0.3000    2.0218   -3.5336 O   0  0  0  0  0  0  0  0  0  0  0  0
    1.1774    2.3802   -3.7359 H   0  0  0  0  0  0  0  0  0  0  0  0
    0.1901    1.2762   -4.1698 H   0  0  0  0  0  0  0  0  0  0  0  0
    0.8146   -2.8563   -5.1988 O   0  0  0  0  0  0  0  0  0  0  0  0
    0.4407   -3.4602   -4.5310 H   0  0  0  0  0  0  0  0  0  0  0  0
    1.1032   -2.0812   -4.6735 H   0  0  0  0  0  0  0  0  0  0  0  0
    3.0386    2.0622    1.2483 O   0  0  0  0  0  0  0  0  0  0  0  0
    2.3116    1.6709    1.7700 H   0  0  0  0  0  0  0  0  0  0  0  0
    3.3864    2.7884    1.7916 H   0  0  0  0  0  0  0  0  0  0  0  0
   -3.0344    1.4188   -1.0068 O   0  0  0  0  0  0  0  0  0  0  0  0
   -3.7018    0.7091   -1.0185 H   0  0  0  0  0  0  0  0  0  0  0  0
   -3.1069    1.8638   -0.1449 H   0  0  0  0  0  0  0  0  0  0  0  0
    0.1909    0.3175   -5.5429 O   0  0  0  0  0  0  0  0  0  0  0  0
    0.0578    0.9115   -6.3021 H   0  0  0  0  0  0  0  0  0  0  0  0
   -0.4616   -0.3930   -5.6486 H   0  0  0  0  0  0  0  0  0  0  0  0
    2.1783   -3.0897    5.0859 O   0  0  0  0  0  0  0  0  0  0  0  0
    2.9223   -3.6734    5.2498 H   0  0  0  0  0  0  0  0  0  0  0  0
    1.3821   -3.6720    5.0752 H   0  0  0  0  0  0  0  0  0  0  0  0
    0.0371   -4.7258    5.1792 O   0  0  0  0  0  0  0  0  0  0  0  0
   -0.2046   -5.0057    4.2708 H   0  0  0  0  0  0  0  0  0  0  0  0
   -0.7287   -4.2031    5.4634 H   0  0  0  0  0  0  0  0  0  0  0  0
   -1.2715   -0.7692   -2.7243 O   0  0  0  0  0  0  0  0  0  0  0  0
   -1.6704   -0.0669   -3.2692 H   0  0  0  0  0  0  0  0  0  0  0  0
   -0.3251   -0.8283   -2.9788 H   0  0  0  0  0  0  0  0  0  0  0  0
   -2.4690   -1.8657   -0.5676 O   0  0  0  0  0  0  0  0  0  0  0  0
   -3.4034   -1.6453   -0.6756 H   0  0  0  0  0  0  0  0  0  0  0  0
   -2.0279   -1.3634   -1.2888 H   0  0  0  0  0  0  0  0  0  0  0  0
    2.2196   -2.8330   -1.3843 O   0  0  0  0  0  0  0  0  0  0  0  0
    2.6364   -2.3471   -0.6602 H   0  0  0  0  0  0  0  0  0  0  0  0
    1.3554   -3.1217   -1.0410 H   0  0  0  0  0  0  0  0  0  0  0  0
  1  2  1  0  0  0  0
  2  4  1  0  0  0  0
  2  5  1  0  0  0  0
  3  5  1  0  0  0  0
  2  7  1  0  0  0  0
  6  7  1  0  0  0  0
  7  9  1  0  0  0  0
  8  9  4  0  0  0  0
  5 10  1  0  0  0  0
  9 11  4  0  0  0  0
  5 12  1  0  0  0  0
  7 13  1  0  0  0  0
 14 15  1  0  0  0  0
 14 16  1  0  0  0  0
 17 18  1  0  0  0  0
 17 19  1  0  0  0  0
 20 21  1  0  0  0  0
 20 22  1  0  0  0  0
 23 24  1  0  0  0  0
 23 25  1  0  0  0  0
 26 27  1  0  0  0  0
 26 28  1  0  0  0  0
 29 30  1  0  0  0  0
 29 31  1  0  0  0  0
 32 33  1  0  0  0  0
 32 34  1  0  0  0  0
 35 36  1  0  0  0  0
 35 37  1  0  0  0  0
 38 39  1  0  0  0  0
 38 40  1  0  0  0  0
 41 42  1  0  0  0  0
 41 43  1  0  0  0  0
 44 45  1  0  0  0  0
 44 46  1  0  0  0  0
 47 48  1  0  0  0  0
 47 49  1  0  0  0  0
 50 51  1  0  0  0  0
 50 52  1  0  0  0  0
 53 54  1  0  0  0  0
 53 55  1  0  0  0  0
 56 57  1  0  0  0  0
 56 58  1  0  0  0  0
 59 60  1  0  0  0  0
 59 61  1  0  0  0  0
 62 63  1  0  0  0  0
 62 64  1  0  0  0  0
 65 66  1  0  0  0  0
 65 67  1  0  0  0  0
 68 69  1  0  0  0  0
 68 70  1  0  0  0  0
 71 72  1  0  0  0  0
 71 73  1  0  0  0  0
 74 75  1  0  0  0  0
 74 76  1  0  0  0  0
 77 78  1  0  0  0  0
 77 79  1  0  0  0  0
 80 81  1  0  0  0  0
 80 82  1  0  0  0  0
 83 84  1  0  0  0  0
 83 85  1  0  0  0  0
 86 87  1  0  0  0  0
 86 88  1  0  0  0  0
 89 90  1  0  0  0  0
 89 91  1  0  0  0  0
 92 93  1  0  0  0  0
 92 94  1  0  0  0  0
 95 96  1  0  0  0  0
 95 97  1  0  0  0  0
 98 99  1  0  0  0  0
 98100  1  0  0  0  0
101102  1  0  0  0  0
101103  1  0  0  0  0
104105  1  0  0  0  0
104106  1  0  0  0  0
107108  1  0  0  0  0
107109  1  0  0  0  0
110111  1  0  0  0  0
110112  1  0  0  0  0
113114  1  0  0  0  0
113115  1  0  0  0  0
116117  1  0  0  0  0
116118  1  0  0  0  0
119120  1  0  0  0  0
119121  1  0  0  0  0
122123  1  0  0  0  0
122124  1  0  0  0  0
125126  1  0  0  0  0
125127  1  0  0  0  0
128129  1  0  0  0  0
128130  1  0  0  0  0
131132  1  0  0  0  0
131133  1  0  0  0  0
134135  1  0  0  0  0
134136  1  0  0  0  0
137138  1  0  0  0  0
137139  1  0  0  0  0
140141  1  0  0  0  0
140142  1  0  0  0  0
143144  1  0  0  0  0
143145  1  0  0  0  0
146147  1  0  0  0  0
146148  1  0  0  0  0
149150  1  0  0  0  0
149151  1  0  0  0  0
152153  1  0  0  0  0
152154  1  0  0  0  0
155156  1  0  0  0  0
155157  1  0  0  0  0
158159  1  0  0  0  0
158160  1  0  0  0  0
161162  1  0  0  0  0
161163  1  0  0  0  0
M  END
