          37
  Built with Packmol                                             
  N            0.002605        0.268339        2.349498
  C            0.005610       -0.534268        1.127824
  C           -0.013605        0.360442       -0.117570
  C           -0.006580       -0.484114       -1.399583
  C            0.005309        0.346063       -2.655593
  O            0.015980        1.566588       -2.611145
  O            0.010136       -0.270580       -3.851920
  H            0.843830        0.889238        2.373417
  H           -0.867625        0.846216        2.397033
  H           -0.885896       -1.198618        1.124039
  H            0.917756       -1.170846        1.111005
  H            0.882890        1.016132       -0.103939
  H           -0.924881        0.997831       -0.099780
  H           -0.910028       -1.129127       -1.413513
  H            0.894287       -1.134110       -1.406828
  H            0.030211       -0.369186        3.177055
  O           -3.284293       -2.461385        3.011777
  H           -2.961012       -3.392619        3.106136
  H           -2.550404       -1.990330        2.542600
  O           -0.656698       -2.997873        4.861176
  H           -1.644610       -3.063694        4.843617
  H           -0.353921       -3.620914        4.153533
  O            0.128645       -3.247281        0.818235
  H            0.078962       -4.137639        0.387648
  H            0.297030       -3.443071        1.774230
  O            2.249592       -2.981575        4.773495
  H            1.749012       -2.247719        4.335903
  H            1.818708       -3.808730        4.440677
  O            0.787510       -3.144148       -3.714297
  H            0.799413       -3.703901       -4.531087
  H            1.712845       -2.800382       -3.635608
  O           -2.147305       -3.310249       -3.783247
  H           -2.564518       -2.733857       -3.094541
  H           -1.327395       -3.659173       -3.351260
  O            1.733756       -3.569050       -1.181243
  H            2.552451       -3.504035       -1.734526
  H            2.032885       -3.334047       -0.266963
