          34
  Built with Packmol                                             
  H            1.420531       -0.693439       -0.457594
  C            0.315625       -0.640915       -0.572756
  H            0.379447        0.341256       -2.375102
  H           -0.020204       -1.577267       -1.069783
  N           -0.042833        0.489322       -1.430827
  H           -0.104344       -1.525775        1.342275
  C           -0.356072       -0.581772        0.809877
  O           -0.155039        1.845644        1.277794
  C            0.099005        0.578296        1.654298
  H            0.334594        1.383914       -1.050468
  O            0.669992        0.373338        2.712012
  H           -1.081518        0.548347       -1.533033
  H           -1.459185       -0.540948        0.693308
  O           -3.065218        2.975604        2.496985
  H           -2.387512        2.390516        2.073903
  H           -2.845838        3.884825        2.171712
  O           -0.593515        1.390769        6.269666
  H           -0.442600        2.235922        5.776157
  H           -0.031775        0.724865        5.798887
  O            1.075383        3.893531        4.858891
  H            1.399238        2.958588        4.818742
  H            1.514395        4.341290        4.092476
  O           -3.018168        1.556630        4.186782
  H           -2.424062        1.771672        4.949281
  H           -2.523323        0.870037        3.672649
  O           -0.762794       -3.332453        3.567769
  H           -1.744264       -3.209871        3.615741
  H           -0.399537       -2.684462        4.222570
  O           -0.859243        3.486098        3.870557
  H           -0.808017        3.953436        2.999016
  H           -0.828197        2.523950        3.638352
  O            1.343498        3.382067        1.719742
  H            1.564143        3.398690        0.754521
  H            1.080619        4.313306        1.930221
