 xtb: 6.7.1 (edcfbbe)
          06092518083D

 37 29  0     0  0            999 V2000
   -0.5798    0.2041    1.3901 N   0  0  0  0  0  0  0  0  0  0  0  0
   -0.1437    1.3397    0.5508 C   0  0  0  0  0  0  0  0  0  0  0  0
   -0.5861    1.1275   -0.8923 C   0  0  0  0  0  0  0  0  0  0  0  0
    0.2982    0.1744   -1.7016 C   0  0  0  0  0  0  0  0  0  0  0  0
    0.1193   -1.3390   -1.4785 C   0  0  0  0  0  0  0  0  0  0  0  0
    0.6342   -2.1059   -2.3074 O   0  0  0  0  0  0  0  0  0  0  0  0
   -0.5303   -1.7323   -0.4657 O   0  0  0  0  0  0  0  0  0  0  0  0
   -0.0336    0.1327    2.2460 H   0  0  0  0  0  0  0  0  0  0  0  0
   -1.5996    0.2892    1.6273 H   0  0  0  0  0  0  0  0  0  0  0  0
   -0.5879    2.2569    0.9412 H   0  0  0  0  0  0  0  0  0  0  0  0
    0.9428    1.4271    0.5873 H   0  0  0  0  0  0  0  0  0  0  0  0
   -0.5753    2.0852   -1.4108 H   0  0  0  0  0  0  0  0  0  0  0  0
   -1.6126    0.7655   -0.9122 H   0  0  0  0  0  0  0  0  0  0  0  0
    1.3584    0.3861   -1.5348 H   0  0  0  0  0  0  0  0  0  0  0  0
    0.1134    0.3285   -2.7675 H   0  0  0  0  0  0  0  0  0  0  0  0
   -0.4894   -0.6685    0.8086 H   0  0  0  0  0  0  0  0  0  0  0  0
   -3.6973   -0.5739    4.5264 O   0  0  0  0  0  0  0  0  0  0  0  0
   -3.2429   -1.2833    4.9903 H   0  0  0  0  0  0  0  0  0  0  0  0
   -3.6249    0.2182    5.0684 H   0  0  0  0  0  0  0  0  0  0  0  0
   -2.4117    1.9506   -3.5906 O   0  0  0  0  0  0  0  0  0  0  0  0
   -3.0031    1.4820   -2.9698 H   0  0  0  0  0  0  0  0  0  0  0  0
   -2.9206    2.7017   -3.9111 H   0  0  0  0  0  0  0  0  0  0  0  0
   -2.0130    3.7899    1.5881 O   0  0  0  0  0  0  0  0  0  0  0  0
   -2.7896    3.3266    1.2213 H   0  0  0  0  0  0  0  0  0  0  0  0
   -2.0698    4.6962    1.2772 H   0  0  0  0  0  0  0  0  0  0  0  0
   -3.2396   -1.5937   -0.2907 O   0  0  0  0  0  0  0  0  0  0  0  0
   -3.6099   -2.4606   -0.4756 H   0  0  0  0  0  0  0  0  0  0  0  0
   -2.2704   -1.6826   -0.3995 H   0  0  0  0  0  0  0  0  0  0  0  0
   -4.2015    2.2949    0.6770 O   0  0  0  0  0  0  0  0  0  0  0  0
   -5.0835    2.4935    1.0038 H   0  0  0  0  0  0  0  0  0  0  0  0
   -3.8925    1.5042    1.1751 H   0  0  0  0  0  0  0  0  0  0  0  0
   -3.2554    0.0846    1.8810 O   0  0  0  0  0  0  0  0  0  0  0  0
   -3.5150   -0.2511    2.7573 H   0  0  0  0  0  0  0  0  0  0  0  0
   -3.4058   -0.6210    1.2258 H   0  0  0  0  0  0  0  0  0  0  0  0
   -4.0630    0.7866   -1.6710 O   0  0  0  0  0  0  0  0  0  0  0  0
   -3.8249   -0.0662   -1.2707 H   0  0  0  0  0  0  0  0  0  0  0  0
   -4.1203    1.4149   -0.9236 H   0  0  0  0  0  0  0  0  0  0  0  0
  1  2  1  0  0  0  0
  2  3  1  0  0  0  0
  3  4  1  0  0  0  0
  4  5  1  0  0  0  0
  5  6  2  0  0  0  0
  5  7  4  0  0  0  0
  1  8  1  0  0  0  0
  1  9  1  0  0  0  0
  2 10  1  0  0  0  0
  2 11  1  0  0  0  0
  3 12  1  0  0  0  0
  3 13  1  0  0  0  0
  4 14  1  0  0  0  0
  4 15  1  0  0  0  0
  1 16  1  0  0  0  0
 17 18  1  0  0  0  0
 17 19  1  0  0  0  0
 20 21  1  0  0  0  0
 20 22  1  0  0  0  0
 23 24  1  0  0  0  0
 23 25  1  0  0  0  0
 26 27  1  0  0  0  0
 26 28  1  0  0  0  0
 29 30  1  0  0  0  0
 29 31  1  0  0  0  0
 32 33  1  0  0  0  0
 32 34  1  0  0  0  0
 35 36  1  0  0  0  0
 35 37  1  0  0  0  0
M  END
