          37
  Built with Packmol                                             
  N           -0.443767       -0.471812        1.745205
  C            0.693510        0.104360        1.026899
  C            0.252325        0.999585       -0.146245
  C           -0.573823        0.306802       -1.244857
  C            0.172762       -0.788129       -1.957711
  O            0.408222       -0.687945       -3.151027
  O            0.546344       -1.903284       -1.303739
  H           -0.087472       -1.004114        2.571270
  H           -1.081184        0.285863        2.081386
  H            1.280979        0.732860        1.731174
  H            1.368045       -0.703734        0.677139
  H            1.158667        1.443130       -0.611175
  H           -0.355788        1.834342        0.265274
  H           -1.517364       -0.100802       -0.829235
  H           -0.852734        1.086771       -1.985872
  H           -0.968720       -1.133893        1.131516
  O           -1.402130       -2.836233        6.262341
  H           -1.423989       -1.978186        5.768490
  H           -1.431614       -3.529776        5.556125
  O           -2.167358       -2.140368        3.705851
  H           -2.817673       -2.826025        4.001781
  H           -1.330663       -2.645035        3.545020
  O           -1.201135       -4.528909        2.080403
  H           -0.374482       -5.073293        2.050356
  H           -1.137250       -3.936924        1.289147
  O            2.557090       -3.140164        3.343947
  H            2.316576       -4.096904        3.257857
  H            2.948888       -3.063410        4.250157
  O            1.081954       -2.687042        1.763512
  H            1.529355       -3.445028        1.309749
  H            0.526314       -3.110887        2.465105
  O            0.610119       -2.729831        5.386202
  H            0.848971       -3.468928        4.771959
  H            1.254295       -2.009503        5.169924
  O           -3.341042       -2.708635        0.897892
  H           -3.096744       -3.517772        0.381921
  H           -2.995839       -2.882193        1.809662
