 xtb: 6.7.1 (edcfbbe)
          06092518073D

 37 29  0     0  0            999 V2000
    0.4352   -1.0067    1.3293 N   0  0  0  0  0  0  0  0  0  0  0  0
    0.6634    0.4508    1.3635 C   0  0  0  0  0  0  0  0  0  0  0  0
    0.2306    1.1095    0.0567 C   0  0  0  0  0  0  0  0  0  0  0  0
    1.2223    0.9264   -1.0988 C   0  0  0  0  0  0  0  0  0  0  0  0
    1.1506   -0.4056   -1.8707 C   0  0  0  0  0  0  0  0  0  0  0  0
    1.4429   -0.3607   -3.0867 O   0  0  0  0  0  0  0  0  0  0  0  0
    0.8357   -1.4526   -1.2616 O   0  0  0  0  0  0  0  0  0  0  0  0
    1.0353   -1.5032    2.0255 H   0  0  0  0  0  0  0  0  0  0  0  0
   -0.5451   -1.2236    1.5046 H   0  0  0  0  0  0  0  0  0  0  0  0
    0.1065    0.8770    2.1983 H   0  0  0  0  0  0  0  0  0  0  0  0
    1.7248    0.6350    1.5296 H   0  0  0  0  0  0  0  0  0  0  0  0
    0.1271    2.1809    0.2302 H   0  0  0  0  0  0  0  0  0  0  0  0
   -0.7457    0.7277   -0.2479 H   0  0  0  0  0  0  0  0  0  0  0  0
    2.2497    1.0104   -0.7347 H   0  0  0  0  0  0  0  0  0  0  0  0
    1.0824    1.7088   -1.8477 H   0  0  0  0  0  0  0  0  0  0  0  0
    0.6607   -1.3408    0.3503 H   0  0  0  0  0  0  0  0  0  0  0  0
    2.4989   -5.0905   -3.5607 O   0  0  0  0  0  0  0  0  0  0  0  0
    1.6823   -5.4373   -3.1866 H   0  0  0  0  0  0  0  0  0  0  0  0
    2.2689   -4.2127   -3.9128 H   0  0  0  0  0  0  0  0  0  0  0  0
   -0.3892   -0.6904    6.2354 O   0  0  0  0  0  0  0  0  0  0  0  0
   -0.1582    0.0127    5.5915 H   0  0  0  0  0  0  0  0  0  0  0  0
   -0.0756   -0.3865    7.0915 H   0  0  0  0  0  0  0  0  0  0  0  0
    2.9555    0.2600    3.8151 O   0  0  0  0  0  0  0  0  0  0  0  0
    3.6426    0.2028    4.4846 H   0  0  0  0  0  0  0  0  0  0  0  0
    2.7299   -0.6596    3.5745 H   0  0  0  0  0  0  0  0  0  0  0  0
    1.6807   -2.5949   -4.5973 O   0  0  0  0  0  0  0  0  0  0  0  0
    1.5569   -1.8231   -3.9977 H   0  0  0  0  0  0  0  0  0  0  0  0
    2.0837   -2.2349   -5.3936 H   0  0  0  0  0  0  0  0  0  0  0  0
    0.5084   -3.0441    5.1948 O   0  0  0  0  0  0  0  0  0  0  0  0
   -0.2572   -3.6112    5.0684 H   0  0  0  0  0  0  0  0  0  0  0  0
    0.1737   -2.2192    5.6073 H   0  0  0  0  0  0  0  0  0  0  0  0
    0.5107    1.2496    4.5251 O   0  0  0  0  0  0  0  0  0  0  0  0
    1.3993    0.9319    4.2542 H   0  0  0  0  0  0  0  0  0  0  0  0
    0.6260    2.1592    4.8110 H   0  0  0  0  0  0  0  0  0  0  0  0
    2.0680   -2.2681    3.1533 O   0  0  0  0  0  0  0  0  0  0  0  0
    1.5253   -2.5767    3.9157 H   0  0  0  0  0  0  0  0  0  0  0  0
    2.5731   -3.0252    2.8454 H   0  0  0  0  0  0  0  0  0  0  0  0
  1  2  1  0  0  0  0
  2  3  1  0  0  0  0
  3  4  1  0  0  0  0
  4  5  1  0  0  0  0
  5  6  4  0  0  0  0
  5  7  4  0  0  0  0
  1  8  1  0  0  0  0
  1  9  1  0  0  0  0
  2 10  1  0  0  0  0
  2 11  1  0  0  0  0
  3 12  1  0  0  0  0
  3 13  1  0  0  0  0
  4 14  1  0  0  0  0
  4 15  1  0  0  0  0
  1 16  1  0  0  0  0
 17 18  1  0  0  0  0
 17 19  1  0  0  0  0
 20 21  1  0  0  0  0
 20 22  1  0  0  0  0
 23 24  1  0  0  0  0
 23 25  1  0  0  0  0
 26 27  1  0  0  0  0
 26 28  1  0  0  0  0
 29 30  1  0  0  0  0
 29 31  1  0  0  0  0
 32 33  1  0  0  0  0
 32 34  1  0  0  0  0
 35 36  1  0  0  0  0
 35 37  1  0  0  0  0
M  END
