          34
  Built with Packmol                                             
  H            1.420531       -0.693439       -0.457594
  C            0.315625       -0.640915       -0.572756
  H            0.379447        0.341256       -2.375102
  H           -0.020204       -1.577267       -1.069783
  N           -0.042833        0.489322       -1.430827
  H           -0.104344       -1.525775        1.342275
  C           -0.356072       -0.581772        0.809877
  O           -0.155039        1.845644        1.277794
  C            0.099005        0.578296        1.654298
  H            0.334594        1.383914       -1.050468
  O            0.669992        0.373338        2.712012
  H           -1.081518        0.548347       -1.533033
  H           -1.459185       -0.540948        0.693308
  O            0.739481       -1.553590       -4.758338
  H            0.972504       -2.426348       -4.352621
  H            0.189216       -1.099699       -4.071458
  O           -3.343205        0.536746       -2.769820
  H           -3.119287       -0.425210       -2.841312
  H           -3.161646        0.901484       -3.672381
  O            0.872710       -4.287052       -0.864351
  H            1.683924       -4.299951       -1.432133
  H            1.217197       -4.182608        0.058164
  O           -0.991580       -3.086755        5.228372
  H           -1.554105       -2.396513        4.795079
  H           -0.446129       -2.585602        5.885594
  O            2.868185       -1.027870       -4.386454
  H            2.976397       -1.780323       -5.021052
  H            3.791367       -0.713502       -4.214638
  O            3.805525       -1.979531        0.447039
  H            3.589134       -1.203978       -0.129420
  H            3.147888       -1.930706        1.185782
  O            2.553467       -2.151333       -1.836646
  H            1.706638       -2.025595       -2.334323
  H            3.193422       -2.482941       -2.515694
