 xtb: 6.7.1 (edcfbbe)
          06092518023D

 37 29  0     0  0            999 V2000
    0.1185   -0.4979    2.0903 N   0  0  0  0  0  0  0  0  0  0  0  0
   -0.1090   -1.0246    0.7283 C   0  0  0  0  0  0  0  0  0  0  0  0
    0.0943    0.0498   -0.3320 C   0  0  0  0  0  0  0  0  0  0  0  0
   -0.1638   -0.5137   -1.7224 C   0  0  0  0  0  0  0  0  0  0  0  0
   -0.0618    0.5418   -2.8417 C   0  0  0  0  0  0  0  0  0  0  0  0
    0.1948    1.7220   -2.5425 O   0  0  0  0  0  0  0  0  0  0  0  0
   -0.2532    0.1261   -4.0179 O   0  0  0  0  0  0  0  0  0  0  0  0
    1.0677   -0.1292    2.1717 H   0  0  0  0  0  0  0  0  0  0  0  0
   -0.5506    0.2468    2.2931 H   0  0  0  0  0  0  0  0  0  0  0  0
   -1.1271   -1.4085    0.6695 H   0  0  0  0  0  0  0  0  0  0  0  0
    0.5802   -1.8501    0.5535 H   0  0  0  0  0  0  0  0  0  0  0  0
    1.1115    0.4465   -0.3089 H   0  0  0  0  0  0  0  0  0  0  0  0
   -0.5856    0.8910   -0.1813 H   0  0  0  0  0  0  0  0  0  0  0  0
   -1.1638   -0.9465   -1.7848 H   0  0  0  0  0  0  0  0  0  0  0  0
    0.5480   -1.3042   -1.9687 H   0  0  0  0  0  0  0  0  0  0  0  0
   -0.0142   -1.2955    2.7868 H   0  0  0  0  0  0  0  0  0  0  0  0
   -2.6142   -2.6540    2.1715 O   0  0  0  0  0  0  0  0  0  0  0  0
   -1.8784   -2.7022    2.8125 H   0  0  0  0  0  0  0  0  0  0  0  0
   -3.4086   -2.9146    2.6427 H   0  0  0  0  0  0  0  0  0  0  0  0
   -0.2400   -2.6664    3.5914 O   0  0  0  0  0  0  0  0  0  0  0  0
    0.1168   -2.7832    4.4870 H   0  0  0  0  0  0  0  0  0  0  0  0
    0.2653   -3.2604    2.9939 H   0  0  0  0  0  0  0  0  0  0  0  0
   -1.3895   -4.3836    0.3875 O   0  0  0  0  0  0  0  0  0  0  0  0
   -1.9241   -3.7947    0.9592 H   0  0  0  0  0  0  0  0  0  0  0  0
   -1.5481   -4.0718   -0.5162 H   0  0  0  0  0  0  0  0  0  0  0  0
    0.9829   -4.0810    1.6414 O   0  0  0  0  0  0  0  0  0  0  0  0
    1.4360   -4.9257    1.6848 H   0  0  0  0  0  0  0  0  0  0  0  0
    0.1650   -4.2337    1.1158 H   0  0  0  0  0  0  0  0  0  0  0  0
   -0.8622   -2.4446   -4.4130 O   0  0  0  0  0  0  0  0  0  0  0  0
   -1.1541   -2.5013   -5.3280 H   0  0  0  0  0  0  0  0  0  0  0  0
   -0.6150   -1.4975   -4.2712 H   0  0  0  0  0  0  0  0  0  0  0  0
   -2.1693   -3.3142   -2.1103 O   0  0  0  0  0  0  0  0  0  0  0  0
   -3.0598   -3.4815   -2.4328 H   0  0  0  0  0  0  0  0  0  0  0  0
   -1.6375   -3.0820   -2.8910 H   0  0  0  0  0  0  0  0  0  0  0  0
    0.6975   -2.9720    6.2077 O   0  0  0  0  0  0  0  0  0  0  0  0
    0.4807   -3.7471    6.7331 H   0  0  0  0  0  0  0  0  0  0  0  0
    0.8261   -2.2365    6.8141 H   0  0  0  0  0  0  0  0  0  0  0  0
  1  2  1  0  0  0  0
  2  3  1  0  0  0  0
  3  4  1  0  0  0  0
  4  5  1  0  0  0  0
  5  6  2  0  0  0  0
  5  7  4  0  0  0  0
  1  8  1  0  0  0  0
  1  9  1  0  0  0  0
  2 10  1  0  0  0  0
  2 11  1  0  0  0  0
  3 12  1  0  0  0  0
  3 13  1  0  0  0  0
  4 14  1  0  0  0  0
  4 15  1  0  0  0  0
  1 16  1  0  0  0  0
 17 18  1  0  0  0  0
 17 19  1  0  0  0  0
 20 21  1  0  0  0  0
 20 22  1  0  0  0  0
 23 24  1  0  0  0  0
 23 25  1  0  0  0  0
 26 27  1  0  0  0  0
 26 28  1  0  0  0  0
 29 30  1  0  0  0  0
 29 31  1  0  0  0  0
 32 33  1  0  0  0  0
 32 34  1  0  0  0  0
 35 36  1  0  0  0  0
 35 37  1  0  0  0  0
M  END
