          34
  Built with Packmol                                             
  C            0.000717       -0.522558        0.678044
  C            0.000155        0.093927        2.050368
  O           -0.000195       -0.630131        3.032262
  O           -0.000797        1.431559        2.216433
  C            0.000989        0.525311       -0.443260
  N           -0.000301       -0.116591       -1.756652
  H            0.902593       -1.162928        0.578888
  H           -0.902640       -1.160238        0.579017
  H           -0.902002        1.167413       -0.351037
  H            0.903666        1.168949       -0.351720
  H           -0.857069       -0.705532       -1.867523
  H            0.853228       -0.710069       -1.867795
  H            0.001656        0.620887       -2.497026
  O           -3.191085       -2.738747        0.130915
  H           -2.840553       -3.602480        0.465137
  H           -2.526008       -2.444451       -0.541153
  O            2.593385       -2.645620        3.165498
  H            2.646471       -3.618348        2.987750
  H            3.311668       -2.252133        2.608856
  O           -1.285240       -2.706391       -4.693154
  H           -0.525792       -2.136546       -4.974445
  H           -1.267623       -3.471321       -5.321791
  O            0.778808       -3.058986        1.944215
  H            0.705528       -3.965829        1.553219
  H            0.062654       -3.024700        2.627268
  O           -0.722100       -3.672809       -0.124820
  H           -1.001251       -4.619973       -0.199428
  H            0.097958       -3.611654       -0.676524
  O           -2.423954       -3.369842        2.617143
  H           -2.049848       -2.454009        2.660802
  H           -1.881224       -3.890510        3.261318
  O           -1.269196       -3.299616       -2.575127
  H           -1.647004       -4.214080       -2.615483
  H           -2.053793       -2.702685       -2.668365
