          34
  Built with Packmol                                             
  C            0.000717       -0.522558        0.678044
  C            0.000155        0.093927        2.050368
  O           -0.000195       -0.630131        3.032262
  O           -0.000797        1.431559        2.216433
  C            0.000989        0.525311       -0.443260
  N           -0.000301       -0.116591       -1.756652
  H            0.902593       -1.162928        0.578888
  H           -0.902640       -1.160238        0.579017
  H           -0.902002        1.167413       -0.351037
  H            0.903666        1.168949       -0.351720
  H           -0.857069       -0.705532       -1.867523
  H            0.853228       -0.710069       -1.867795
  H            0.001656        0.620887       -2.497026
  O           -1.114299       -2.493273        4.586784
  H           -0.245238       -2.038320        4.722287
  H           -1.469821       -2.104436        3.748319
  O           -0.951923       -0.936416       -6.981128
  H           -1.111445       -0.515475       -6.099100
  H           -0.815531       -0.174407       -7.598666
  O            1.022750       -0.952577       -5.807292
  H            1.114246       -0.296306       -6.543191
  H            1.537614       -0.559075       -5.058503
  O            3.164499        1.368597        0.068644
  H            2.842460        2.199502       -0.363210
  H            2.897242        1.462503        1.017522
  O            1.835506        2.175907        3.594511
  H            2.047560        1.295488        3.995143
  H            0.984887        2.445482        4.023918
  O           -2.366921        0.629739        4.115854
  H           -2.557512       -0.072215        4.787826
  H           -2.339028        0.145633        3.252445
  O            0.324876        1.842445        6.403327
  H            1.309071        1.747532        6.457756
  H            0.005470        1.644263        7.319469
