          34
  Built with Packmol                                             
  C            0.000717       -0.522558        0.678044
  C            0.000155        0.093927        2.050368
  O           -0.000195       -0.630131        3.032262
  O           -0.000797        1.431559        2.216433
  C            0.000989        0.525311       -0.443260
  N           -0.000301       -0.116591       -1.756652
  H            0.902593       -1.162928        0.578888
  H           -0.902640       -1.160238        0.579017
  H           -0.902002        1.167413       -0.351037
  H            0.903666        1.168949       -0.351720
  H           -0.857069       -0.705532       -1.867523
  H            0.853228       -0.710069       -1.867795
  H            0.001656        0.620887       -2.497026
  O           -2.400798        2.991668       -3.911307
  H           -3.043937        2.240650       -3.965669
  H           -1.741118        2.805613       -4.626023
  O           -3.006753        1.245500        1.281831
  H           -2.330033        0.539825        1.438942
  H           -3.696838        1.085961        1.973888
  O           -3.746643        0.112241       -0.508488
  H           -2.771333        0.109381       -0.679873
  H           -3.865675       -0.503438        0.257921
  O           -3.167474       -2.894643        2.227505
  H           -2.280622       -2.893179        2.668076
  H           -3.169487       -2.075421        1.671191
  O           -2.661069       -0.191221        3.945406
  H           -3.633143       -0.326140        3.813196
  H           -2.235149       -0.778262        3.271174
  O           -2.102440       -1.925774       -4.887745
  H           -1.780447       -0.990240       -4.846429
  H           -3.089681       -1.848964       -4.879408
  O           -3.444672       -1.716849       -1.695565
  H           -2.546508       -2.133849       -1.700403
  H           -3.416674       -1.058801       -2.435026
