          34
  Built with Packmol                                             
  C            0.000717       -0.522558        0.678044
  C            0.000155        0.093927        2.050368
  O           -0.000195       -0.630131        3.032262
  O           -0.000797        1.431559        2.216433
  C            0.000989        0.525311       -0.443260
  N           -0.000301       -0.116591       -1.756652
  H            0.902593       -1.162928        0.578888
  H           -0.902640       -1.160238        0.579017
  H           -0.902002        1.167413       -0.351037
  H            0.903666        1.168949       -0.351720
  H           -0.857069       -0.705532       -1.867523
  H            0.853228       -0.710069       -1.867795
  H            0.001656        0.620887       -2.497026
  O           -0.617102       -3.596937        0.136222
  H           -0.964520       -3.914544        1.007450
  H            0.047309       -4.281158       -0.130260
  O           -0.527264       -3.894454       -2.694194
  H           -0.020528       -3.181942       -2.229268
  H           -1.477372       -3.680583       -2.514839
  O           -0.582177       -3.810804        3.167044
  H           -1.213510       -4.570720        3.099535
  H           -1.109647       -3.086784        3.589163
  O           -2.753863       -3.320352        2.153867
  H           -3.187335       -2.431884        2.096089
  H           -3.129003       -3.829456        1.391833
  O            0.376117       -2.611218        5.297010
  H            0.907262       -2.940601        4.528894
  H           -0.103898       -3.411564        5.628138
  O           -2.485122       -2.460324       -0.200522
  H           -3.296313       -1.922358       -0.382653
  H           -2.637595       -3.310746       -0.684409
  O            1.721680       -3.935285        1.748072
  H            2.004782       -3.902890        0.799697
  H            1.542086       -2.990904        1.985776
