          34
  Built with Packmol                                             
  C            0.000717       -0.522558        0.678044
  C            0.000155        0.093927        2.050368
  O           -0.000195       -0.630131        3.032262
  O           -0.000797        1.431559        2.216433
  C            0.000989        0.525311       -0.443260
  N           -0.000301       -0.116591       -1.756652
  H            0.902593       -1.162928        0.578888
  H           -0.902640       -1.160238        0.579017
  H           -0.902002        1.167413       -0.351037
  H            0.903666        1.168949       -0.351720
  H           -0.857069       -0.705532       -1.867523
  H            0.853228       -0.710069       -1.867795
  H            0.001656        0.620887       -2.497026
  O            2.064060       -2.397640        2.551117
  H            1.977977       -3.333879        2.240220
  H            3.023361       -2.183465        2.430767
  O            2.370214        2.374748       -2.972970
  H            2.006375        1.525961       -2.615488
  H            2.748275        2.130631       -3.855064
  O            3.129856       -2.141387       -0.486839
  H            3.180247       -1.165216       -0.328213
  H            2.629161       -2.493697        0.291490
  O            3.043399        0.087187        2.865387
  H            2.947294        0.510858        3.755262
  H            2.122517       -0.178411        2.616298
  O            3.225622        1.610933        0.260568
  H            3.403163        1.057728       -0.541339
  H            2.719230        1.013733        0.866811
  O            1.832186       -2.904975       -2.096833
  H            1.188091       -3.567781       -2.452417
  H            2.710794       -3.201871       -2.443984
  O            3.377885       -0.186441       -2.366552
  H            4.307416       -0.339719       -2.671655
  H            2.889570       -1.003939       -2.638321
