25

H       -2.0851000000     -0.6737400000     -1.2346700000                 
C       -1.7647700000     -0.0657800000     -2.1090900000                 
H       -0.1980200000     -1.2966100000     -2.6066200000                 
H       -2.3444000000     -0.4092100000     -2.9937700000                 
N       -0.3429700000     -0.2877100000     -2.3763800000                 
H       -3.2140000000      1.4900100000     -1.7836000000                 
C       -2.1076400000      1.4154400000     -1.8750500000                 
O       -0.1489800000      2.0963500000     -0.5142700000                 
C       -1.4860600000      1.9908800000     -0.6307000000                 
H        0.2356700000     -0.0667100000     -1.5374800000                 
O       -2.1976100000      2.4042000000      0.2691100000                 
H       -0.0355100000      0.2902100000     -3.1914100000                 
H       -1.7976500000      2.0190500000     -2.7535000000                 
O        1.6065448089      3.2536229652      0.1770625344                 
H        2.4654851305      2.9376505956      0.5551250101                 
H        1.4220203377      4.1012352330      0.6546769950                 
O       -2.4144158344      5.5842158530      1.0231506297                 
H       -1.6136382556      5.0261417271      0.8562470970                 
H       -3.1777510091      4.9644974736      0.9053374247                 
O        2.1631685393      0.2854892825     -2.9964556184                 
H        2.8016090702     -0.2205026517     -2.4335043761                 
H        2.7248500957      0.9428795680     -3.4791182871                 
O        1.5548550333     -1.3514581580     -4.9694474028                 
H        1.8266425087     -2.0856850870     -4.3631548703                 
H        2.2950308276     -1.2830309482     -5.6237171640                 
