 xtb: 6.7.1 (edcfbbe)
          06092517593D

 34 26  0     0  0            999 V2000
    1.8891   -0.8949    0.0608 H   0  0  0  0  0  0  0  0  0  0  0  0
    0.8157   -1.0574   -0.0464 C   0  0  0  0  0  0  0  0  0  0  0  0
    1.1671   -1.8683   -1.9461 H   0  0  0  0  0  0  0  0  0  0  0  0
    0.5299   -1.9550    0.5032 H   0  0  0  0  0  0  0  0  0  0  0  0
    0.5001   -1.2270   -1.4763 N   0  0  0  0  0  0  0  0  0  0  0  0
    0.2467    0.2985    1.5551 H   0  0  0  0  0  0  0  0  0  0  0  0
    0.0590    0.1517    0.4925 C   0  0  0  0  0  0  0  0  0  0  0  0
    0.6338    1.4223   -1.4685 O   0  0  0  0  0  0  0  0  0  0  0  0
    0.4273    1.4755   -0.2288 C   0  0  0  0  0  0  0  0  0  0  0  0
    0.5653   -0.2587   -1.8658 H   0  0  0  0  0  0  0  0  0  0  0  0
    0.4740    2.5114    0.4611 O   0  0  0  0  0  0  0  0  0  0  0  0
   -0.4760   -1.5790   -1.5906 H   0  0  0  0  0  0  0  0  0  0  0  0
   -1.0156    0.0114    0.3520 H   0  0  0  0  0  0  0  0  0  0  0  0
    0.3705   -3.9202    1.7254 O   0  0  0  0  0  0  0  0  0  0  0  0
    1.3428   -3.8900    1.6261 H   0  0  0  0  0  0  0  0  0  0  0  0
    0.1996   -4.0016    2.6674 H   0  0  0  0  0  0  0  0  0  0  0  0
    2.3208   -1.6347   -5.2948 O   0  0  0  0  0  0  0  0  0  0  0  0
    2.7850   -0.7971   -5.3801 H   0  0  0  0  0  0  0  0  0  0  0  0
    1.4907   -1.5517   -5.7749 H   0  0  0  0  0  0  0  0  0  0  0  0
    2.3033   -2.8772   -2.8359 O   0  0  0  0  0  0  0  0  0  0  0  0
    2.3811   -2.4626   -3.7159 H   0  0  0  0  0  0  0  0  0  0  0  0
    2.0672   -3.7982   -2.9855 H   0  0  0  0  0  0  0  0  0  0  0  0
   -1.5360   -4.5748   -0.1922 O   0  0  0  0  0  0  0  0  0  0  0  0
   -2.2470   -4.9624    0.3249 H   0  0  0  0  0  0  0  0  0  0  0  0
   -0.8160   -4.3813    0.4361 H   0  0  0  0  0  0  0  0  0  0  0  0
    3.8990   -2.1547   -0.6548 O   0  0  0  0  0  0  0  0  0  0  0  0
    3.4103   -2.4307   -1.4514 H   0  0  0  0  0  0  0  0  0  0  0  0
    4.8113   -2.0223   -0.9259 H   0  0  0  0  0  0  0  0  0  0  0  0
   -2.0214   -2.3145   -1.6326 O   0  0  0  0  0  0  0  0  0  0  0  0
   -2.3784   -2.5960   -2.4794 H   0  0  0  0  0  0  0  0  0  0  0  0
   -1.8824   -3.1320   -1.1073 H   0  0  0  0  0  0  0  0  0  0  0  0
    3.0957   -3.5352    1.6043 O   0  0  0  0  0  0  0  0  0  0  0  0
    3.4697   -3.0105    2.3174 H   0  0  0  0  0  0  0  0  0  0  0  0
    3.3734   -3.0942    0.7780 H   0  0  0  0  0  0  0  0  0  0  0  0
  1  2  1  0  0  0  0
  2  4  1  0  0  0  0
  2  5  1  0  0  0  0
  3  5  1  0  0  0  0
  2  7  1  0  0  0  0
  6  7  1  0  0  0  0
  7  9  1  0  0  0  0
  8  9  4  0  0  0  0
  5 10  1  0  0  0  0
  9 11  2  0  0  0  0
  5 12  1  0  0  0  0
  7 13  1  0  0  0  0
 14 15  1  0  0  0  0
 14 16  1  0  0  0  0
 17 18  1  0  0  0  0
 17 19  1  0  0  0  0
 20 21  1  0  0  0  0
 20 22  1  0  0  0  0
 23 24  1  0  0  0  0
 23 25  1  0  0  0  0
 26 27  1  0  0  0  0
 26 28  1  0  0  0  0
 29 30  1  0  0  0  0
 29 31  1  0  0  0  0
 32 33  1  0  0  0  0
 32 34  1  0  0  0  0
M  END
