 xtb: 6.7.1 (edcfbbe)
          06092518033D

 37 29  0     0  0            999 V2000
   -0.6644   -1.7688    2.0866 N   0  0  0  0  0  0  0  0  0  0  0  0
   -0.9801   -0.8262    1.0012 C   0  0  0  0  0  0  0  0  0  0  0  0
    0.2566   -0.0162    0.6128 C   0  0  0  0  0  0  0  0  0  0  0  0
    0.1550    0.5166   -0.8117 C   0  0  0  0  0  0  0  0  0  0  0  0
    0.2792   -0.5599   -1.9200 C   0  0  0  0  0  0  0  0  0  0  0  0
    0.6023   -1.7285   -1.5984 O   0  0  0  0  0  0  0  0  0  0  0  0
    0.0572   -0.1817   -3.0881 O   0  0  0  0  0  0  0  0  0  0  0  0
    0.0442   -2.4341    1.7308 H   0  0  0  0  0  0  0  0  0  0  0  0
   -0.2749   -1.2688    2.9153 H   0  0  0  0  0  0  0  0  0  0  0  0
   -1.7887   -0.1648    1.3114 H   0  0  0  0  0  0  0  0  0  0  0  0
   -1.3152   -1.3879    0.1276 H   0  0  0  0  0  0  0  0  0  0  0  0
    1.1382   -0.6540    0.6655 H   0  0  0  0  0  0  0  0  0  0  0  0
    0.4023    0.8195    1.2964 H   0  0  0  0  0  0  0  0  0  0  0  0
   -0.7912    1.0339   -0.9855 H   0  0  0  0  0  0  0  0  0  0  0  0
    0.9544    1.2338   -1.0155 H   0  0  0  0  0  0  0  0  0  0  0  0
   -1.5178   -2.2995    2.3822 H   0  0  0  0  0  0  0  0  0  0  0  0
    0.3120   -2.8600    5.7487 O   0  0  0  0  0  0  0  0  0  0  0  0
    0.3821   -2.0100    5.2715 H   0  0  0  0  0  0  0  0  0  0  0  0
    1.0970   -3.3653    5.5213 H   0  0  0  0  0  0  0  0  0  0  0  0
    2.8126    0.0779    3.1220 O   0  0  0  0  0  0  0  0  0  0  0  0
    3.6079    0.2781    3.6226 H   0  0  0  0  0  0  0  0  0  0  0  0
    3.0408   -0.6694    2.5339 H   0  0  0  0  0  0  0  0  0  0  0  0
    1.1491   -3.2645    0.5535 O   0  0  0  0  0  0  0  0  0  0  0  0
    1.0526   -4.1822    0.2841 H   0  0  0  0  0  0  0  0  0  0  0  0
    0.9627   -2.7228   -0.2439 H   0  0  0  0  0  0  0  0  0  0  0  0
   -2.2022   -3.8551    5.3992 O   0  0  0  0  0  0  0  0  0  0  0  0
   -2.7064   -3.5256    6.1477 H   0  0  0  0  0  0  0  0  0  0  0  0
   -1.2807   -3.5483    5.5399 H   0  0  0  0  0  0  0  0  0  0  0  0
    0.4614   -0.5191    4.2768 O   0  0  0  0  0  0  0  0  0  0  0  0
    1.3364   -0.2843    3.8947 H   0  0  0  0  0  0  0  0  0  0  0  0
    0.0863    0.2919    4.6290 H   0  0  0  0  0  0  0  0  0  0  0  0
    3.4374   -2.0403    1.4866 O   0  0  0  0  0  0  0  0  0  0  0  0
    2.6526   -2.5535    1.2082 H   0  0  0  0  0  0  0  0  0  0  0  0
    3.9777   -1.9280    0.7011 H   0  0  0  0  0  0  0  0  0  0  0  0
   -2.8781   -3.1621    2.8699 O   0  0  0  0  0  0  0  0  0  0  0  0
   -2.6892   -3.4173    3.7999 H   0  0  0  0  0  0  0  0  0  0  0  0
   -3.1013   -3.9736    2.4081 H   0  0  0  0  0  0  0  0  0  0  0  0
  1  2  1  0  0  0  0
  2  3  1  0  0  0  0
  3  4  1  0  0  0  0
  4  5  1  0  0  0  0
  5  6  4  0  0  0  0
  5  7  2  0  0  0  0
  1  8  1  0  0  0  0
  1  9  1  0  0  0  0
  2 10  1  0  0  0  0
  2 11  1  0  0  0  0
  3 12  1  0  0  0  0
  3 13  1  0  0  0  0
  4 14  1  0  0  0  0
  4 15  1  0  0  0  0
  1 16  1  0  0  0  0
 17 18  1  0  0  0  0
 17 19  1  0  0  0  0
 20 21  1  0  0  0  0
 20 22  1  0  0  0  0
 23 24  1  0  0  0  0
 23 25  1  0  0  0  0
 26 27  1  0  0  0  0
 26 28  1  0  0  0  0
 29 30  1  0  0  0  0
 29 31  1  0  0  0  0
 32 33  1  0  0  0  0
 32 34  1  0  0  0  0
 35 36  1  0  0  0  0
 35 37  1  0  0  0  0
M  END
