 xtb: 6.7.1 (edcfbbe)
          06092518013D

 37 29  0     0  0            999 V2000
   -0.2842   -0.9340    1.8208 N   0  0  0  0  0  0  0  0  0  0  0  0
   -0.8655   -0.7475    0.4793 C   0  0  0  0  0  0  0  0  0  0  0  0
   -0.0260    0.2106   -0.3589 C   0  0  0  0  0  0  0  0  0  0  0  0
   -0.6817    0.5210   -1.6981 C   0  0  0  0  0  0  0  0  0  0  0  0
   -0.0054    1.7068   -2.4401 C   0  0  0  0  0  0  0  0  0  0  0  0
    0.6042    2.5561   -1.7559 O   0  0  0  0  0  0  0  0  0  0  0  0
   -0.1473    1.7372   -3.6838 O   0  0  0  0  0  0  0  0  0  0  0  0
    0.6420   -1.4103    1.7388 H   0  0  0  0  0  0  0  0  0  0  0  0
   -0.1522   -0.0293    2.2737 H   0  0  0  0  0  0  0  0  0  0  0  0
   -1.8771   -0.3516    0.5733 H   0  0  0  0  0  0  0  0  0  0  0  0
   -0.9046   -1.7153   -0.0180 H   0  0  0  0  0  0  0  0  0  0  0  0
    0.9575   -0.2168   -0.5550 H   0  0  0  0  0  0  0  0  0  0  0  0
    0.1168    1.1654    0.1532 H   0  0  0  0  0  0  0  0  0  0  0  0
   -1.7234    0.8262   -1.5608 H   0  0  0  0  0  0  0  0  0  0  0  0
   -0.6675   -0.3331   -2.3757 H   0  0  0  0  0  0  0  0  0  0  0  0
   -0.9260   -1.5224    2.4193 H   0  0  0  0  0  0  0  0  0  0  0  0
   -0.0358   -4.0762    1.8928 O   0  0  0  0  0  0  0  0  0  0  0  0
   -0.1762   -4.3719    2.8043 H   0  0  0  0  0  0  0  0  0  0  0  0
    0.8124   -3.6089    1.8910 H   0  0  0  0  0  0  0  0  0  0  0  0
    2.1062   -2.2722    1.4595 O   0  0  0  0  0  0  0  0  0  0  0  0
    2.0292   -2.4317    0.4953 H   0  0  0  0  0  0  0  0  0  0  0  0
    2.9843   -1.9187    1.6185 H   0  0  0  0  0  0  0  0  0  0  0  0
    1.1673   -3.4027    6.4605 O   0  0  0  0  0  0  0  0  0  0  0  0
    0.9054   -2.6649    7.0202 H   0  0  0  0  0  0  0  0  0  0  0  0
    2.0853   -3.2615    6.2089 H   0  0  0  0  0  0  0  0  0  0  0  0
   -0.1196   -4.8019   -0.7253 O   0  0  0  0  0  0  0  0  0  0  0  0
   -1.0333   -4.7982   -1.0218 H   0  0  0  0  0  0  0  0  0  0  0  0
   -0.1450   -4.6841    0.2480 H   0  0  0  0  0  0  0  0  0  0  0  0
    1.6826   -2.7872   -1.1644 O   0  0  0  0  0  0  0  0  0  0  0  0
    2.3017   -3.0262   -1.8570 H   0  0  0  0  0  0  0  0  0  0  0  0
    1.0408   -3.5267   -1.0991 H   0  0  0  0  0  0  0  0  0  0  0  0
   -2.0385   -2.2969    3.3807 O   0  0  0  0  0  0  0  0  0  0  0  0
   -1.5574   -2.9879    3.8750 H   0  0  0  0  0  0  0  0  0  0  0  0
   -2.7094   -2.7552    2.8679 H   0  0  0  0  0  0  0  0  0  0  0  0
   -0.6708   -4.3716    4.6339 O   0  0  0  0  0  0  0  0  0  0  0  0
   -1.1412   -5.0854    5.0729 H   0  0  0  0  0  0  0  0  0  0  0  0
   -0.0016   -4.0547    5.2689 H   0  0  0  0  0  0  0  0  0  0  0  0
  1  2  1  0  0  0  0
  2  3  1  0  0  0  0
  3  4  1  0  0  0  0
  4  5  1  0  0  0  0
  5  6  4  0  0  0  0
  5  7  4  0  0  0  0
  1  8  1  0  0  0  0
  1  9  1  0  0  0  0
  2 10  1  0  0  0  0
  2 11  1  0  0  0  0
  3 12  1  0  0  0  0
  3 13  1  0  0  0  0
  4 14  1  0  0  0  0
  4 15  1  0  0  0  0
  1 16  1  0  0  0  0
 17 18  1  0  0  0  0
 17 19  1  0  0  0  0
 20 21  1  0  0  0  0
 20 22  1  0  0  0  0
 23 24  1  0  0  0  0
 23 25  1  0  0  0  0
 26 27  1  0  0  0  0
 26 28  1  0  0  0  0
 29 30  1  0  0  0  0
 29 31  1  0  0  0  0
 32 33  1  0  0  0  0
 32 34  1  0  0  0  0
 35 36  1  0  0  0  0
 35 37  1  0  0  0  0
M  END
