 xtb: 6.7.1 (edcfbbe)
          06092518013D

 37 29  0     0  0            999 V2000
    0.3793    0.7288    2.3538 N   0  0  0  0  0  0  0  0  0  0  0  0
    0.3893   -0.1680    1.1824 C   0  0  0  0  0  0  0  0  0  0  0  0
   -0.0012    0.5579   -0.1007 C   0  0  0  0  0  0  0  0  0  0  0  0
   -0.0408   -0.4104   -1.2745 C   0  0  0  0  0  0  0  0  0  0  0  0
   -0.4357    0.2531   -2.6213 C   0  0  0  0  0  0  0  0  0  0  0  0
   -0.5597    1.4944   -2.6583 O   0  0  0  0  0  0  0  0  0  0  0  0
   -0.5960   -0.5312   -3.5859 O   0  0  0  0  0  0  0  0  0  0  0  0
    1.0123    1.5164    2.2065 H   0  0  0  0  0  0  0  0  0  0  0  0
   -0.5632    1.0881    2.5123 H   0  0  0  0  0  0  0  0  0  0  0  0
   -0.3175   -0.9782    1.3608 H   0  0  0  0  0  0  0  0  0  0  0  0
    1.3890   -0.5863    1.0733 H   0  0  0  0  0  0  0  0  0  0  0  0
    0.7032    1.3562   -0.3433 H   0  0  0  0  0  0  0  0  0  0  0  0
   -0.9884    1.0150   -0.0100 H   0  0  0  0  0  0  0  0  0  0  0  0
   -0.7647   -1.2073   -1.0995 H   0  0  0  0  0  0  0  0  0  0  0  0
    0.9375   -0.8665   -1.4419 H   0  0  0  0  0  0  0  0  0  0  0  0
    0.7068    0.1728    3.2297 H   0  0  0  0  0  0  0  0  0  0  0  0
   -0.5184   -4.4027   -0.2261 O   0  0  0  0  0  0  0  0  0  0  0  0
   -0.0744   -3.8934   -0.9114 H   0  0  0  0  0  0  0  0  0  0  0  0
   -1.0254   -5.0888   -0.6733 H   0  0  0  0  0  0  0  0  0  0  0  0
   -1.2764   -2.8748    6.2290 O   0  0  0  0  0  0  0  0  0  0  0  0
   -0.8846   -3.5892    6.7380 H   0  0  0  0  0  0  0  0  0  0  0  0
   -0.9449   -2.9814    5.3119 H   0  0  0  0  0  0  0  0  0  0  0  0
    1.1706   -0.7310    4.3808 O   0  0  0  0  0  0  0  0  0  0  0  0
    0.7886   -1.6076    4.1623 H   0  0  0  0  0  0  0  0  0  0  0  0
    0.7592   -0.4823    5.2306 H   0  0  0  0  0  0  0  0  0  0  0  0
   -1.7832   -2.5849    1.5297 O   0  0  0  0  0  0  0  0  0  0  0  0
   -1.3990   -3.2469    0.9305 H   0  0  0  0  0  0  0  0  0  0  0  0
   -2.7302   -2.7440    1.5580 H   0  0  0  0  0  0  0  0  0  0  0  0
   -0.3573   -0.3267    6.6292 O   0  0  0  0  0  0  0  0  0  0  0  0
   -1.0921    0.2790    6.7571 H   0  0  0  0  0  0  0  0  0  0  0  0
   -0.7473   -1.2251    6.5829 H   0  0  0  0  0  0  0  0  0  0  0  0
   -0.1803   -3.0107    3.7190 O   0  0  0  0  0  0  0  0  0  0  0  0
    0.2816   -3.7898    3.3596 H   0  0  0  0  0  0  0  0  0  0  0  0
   -0.8088   -2.7596    3.0134 H   0  0  0  0  0  0  0  0  0  0  0  0
    0.9535   -5.0071    2.1881 O   0  0  0  0  0  0  0  0  0  0  0  0
    1.8884   -5.0241    1.9651 H   0  0  0  0  0  0  0  0  0  0  0  0
    0.4700   -4.8716    1.3578 H   0  0  0  0  0  0  0  0  0  0  0  0
  1  2  1  0  0  0  0
  2  3  1  0  0  0  0
  3  4  1  0  0  0  0
  4  5  1  0  0  0  0
  5  6  4  0  0  0  0
  5  7  4  0  0  0  0
  1  8  1  0  0  0  0
  1  9  1  0  0  0  0
  2 10  1  0  0  0  0
  2 11  1  0  0  0  0
  3 12  1  0  0  0  0
  3 13  1  0  0  0  0
  4 14  1  0  0  0  0
  4 15  1  0  0  0  0
  1 16  1  0  0  0  0
 17 18  1  0  0  0  0
 17 19  1  0  0  0  0
 20 21  1  0  0  0  0
 20 22  1  0  0  0  0
 23 24  1  0  0  0  0
 23 25  1  0  0  0  0
 26 27  1  0  0  0  0
 26 28  1  0  0  0  0
 29 30  1  0  0  0  0
 29 31  1  0  0  0  0
 32 33  1  0  0  0  0
 32 34  1  0  0  0  0
 35 36  1  0  0  0  0
 35 37  1  0  0  0  0
M  END
