          34
  Built with Packmol                                             
  H            1.420531       -0.693439       -0.457594
  C            0.315625       -0.640915       -0.572756
  H            0.379447        0.341256       -2.375102
  H           -0.020204       -1.577267       -1.069783
  N           -0.042833        0.489322       -1.430827
  H           -0.104344       -1.525775        1.342275
  C           -0.356072       -0.581772        0.809877
  O           -0.155039        1.845644        1.277794
  C            0.099005        0.578296        1.654298
  H            0.334594        1.383914       -1.050468
  O            0.669992        0.373338        2.712012
  H           -1.081518        0.548347       -1.533033
  H           -1.459185       -0.540948        0.693308
  O            1.505605       -2.176107       -4.184603
  H            2.005110       -2.511931       -4.970942
  H            0.704573       -2.756048       -4.133325
  O            3.541537       -0.861246        2.027498
  H            2.735850       -1.288606        1.641696
  H            3.294925       -0.669807        2.967257
  O            2.077766       -2.930892       -1.643095
  H            2.199151       -3.868186       -1.938658
  H            2.617503       -2.398092       -2.279821
  O           -3.328530        0.814947       -3.433464
  H           -3.101682        0.790243       -2.469856
  H           -2.475552        0.613488       -3.894394
  O           -2.669736       -3.389222       -0.277007
  H           -1.730236       -3.106096       -0.410385
  H           -3.126608       -2.579887        0.064838
  O           -1.952639       -2.990625        2.673319
  H           -2.757415       -2.465576        2.912629
  H           -2.227449       -3.519246        1.882336
  O           -0.868300       -1.522145        5.215095
  H           -1.236077       -1.110668        6.037310
  H           -1.639397       -1.988816        4.804924
