 xtb: 6.7.1 (edcfbbe)
          06112501293D

 28 23  0     0  0            999 V2000
   -0.1874    0.5510    0.0457 N   0  0  0  0  0  0  0  0  0  0  0  0
    0.3227    1.9044   -0.2236 C   0  0  0  0  0  0  0  0  0  0  0  0
    0.0369    2.3289   -1.6611 C   0  0  0  0  0  0  0  0  0  0  0  0
    0.8871    1.5950   -2.7116 C   0  0  0  0  0  0  0  0  0  0  0  0
    0.2798    0.2593   -3.1711 C   0  0  0  0  0  0  0  0  0  0  0  0
   -0.0927    0.1632   -4.3580 O   0  0  0  0  0  0  0  0  0  0  0  0
    0.1868   -0.6684   -2.3262 O   0  0  0  0  0  0  0  0  0  0  0  0
    0.1575    0.1917    0.9544 H   0  0  0  0  0  0  0  0  0  0  0  0
   -1.2325    0.5364    0.0310 H   0  0  0  0  0  0  0  0  0  0  0  0
   -0.1579    2.6060    0.4587 H   0  0  0  0  0  0  0  0  0  0  0  0
    1.3990    1.9200   -0.0442 H   0  0  0  0  0  0  0  0  0  0  0  0
    0.2456    3.3953   -1.7487 H   0  0  0  0  0  0  0  0  0  0  0  0
   -1.0217    2.1795   -1.8827 H   0  0  0  0  0  0  0  0  0  0  0  0
    1.8858    1.3948   -2.3175 H   0  0  0  0  0  0  0  0  0  0  0  0
    0.9856    2.2103   -3.6074 H   0  0  0  0  0  0  0  0  0  0  0  0
    0.1072   -0.0794   -0.7365 H   0  0  0  0  0  0  0  0  0  0  0  0
    0.7769   -0.3200    2.5163 O   0  0  0  0  0  0  0  0  0  0  0  0
    1.1238   -1.2139    2.5832 H   0  0  0  0  0  0  0  0  0  0  0  0
    0.2761   -0.1403    3.3179 H   0  0  0  0  0  0  0  0  0  0  0  0
   -2.3627   -1.6748   -2.0935 O   0  0  0  0  0  0  0  0  0  0  0  0
   -2.6709   -1.5831   -3.0096 H   0  0  0  0  0  0  0  0  0  0  0  0
   -1.4004   -1.5125   -2.1530 H   0  0  0  0  0  0  0  0  0  0  0  0
   -2.4272   -1.1779   -4.8564 O   0  0  0  0  0  0  0  0  0  0  0  0
   -2.2745   -1.7875   -5.5845 H   0  0  0  0  0  0  0  0  0  0  0  0
   -1.5909   -0.6781   -4.7474 H   0  0  0  0  0  0  0  0  0  0  0  0
   -2.9032    0.2915   -0.2873 O   0  0  0  0  0  0  0  0  0  0  0  0
   -2.8253   -0.4122   -0.9663 H   0  0  0  0  0  0  0  0  0  0  0  0
   -3.5033   -0.0484    0.3833 H   0  0  0  0  0  0  0  0  0  0  0  0
  1  2  1  0  0  0  0
  2  3  1  0  0  0  0
  3  4  1  0  0  0  0
  4  5  1  0  0  0  0
  5  6  4  0  0  0  0
  5  7  4  0  0  0  0
  1  8  1  0  0  0  0
  1  9  1  0  0  0  0
  2 10  1  0  0  0  0
  2 11  1  0  0  0  0
  3 12  1  0  0  0  0
  3 13  1  0  0  0  0
  4 14  1  0  0  0  0
  4 15  1  0  0  0  0
  1 16  1  0  0  0  0
 17 18  1  0  0  0  0
 17 19  1  0  0  0  0
 20 21  1  0  0  0  0
 20 22  1  0  0  0  0
 23 24  1  0  0  0  0
 23 25  1  0  0  0  0
 26 27  1  0  0  0  0
 26 28  1  0  0  0  0
M  END
