          37
  Built with Packmol                                             
  N           -0.443767       -0.471812        1.745205
  C            0.693510        0.104360        1.026899
  C            0.252325        0.999585       -0.146245
  C           -0.573823        0.306802       -1.244857
  C            0.172762       -0.788129       -1.957711
  O            0.408222       -0.687945       -3.151027
  O            0.546344       -1.903284       -1.303739
  H           -0.087472       -1.004114        2.571270
  H           -1.081184        0.285863        2.081386
  H            1.280979        0.732860        1.731174
  H            1.368045       -0.703734        0.677139
  H            1.158667        1.443130       -0.611175
  H           -0.355788        1.834342        0.265274
  H           -1.517364       -0.100802       -0.829235
  H           -0.852734        1.086771       -1.985872
  H           -0.968720       -1.133893        1.131516
  O           -0.698931       -3.930451       -4.017003
  H            0.026474       -4.562246       -3.781988
  H           -0.335859       -3.406645       -4.774907
  O           -2.990834       -2.564965       -3.703087
  H           -2.298579       -2.394479       -4.390348
  H           -2.702878       -2.028121       -2.922386
  O            1.010550        4.622529       -2.622616
  H            1.537242        3.785893       -2.565622
  H            0.208922        4.449338       -2.067630
  O            1.117757       -3.756006        3.136091
  H            0.964578       -4.107649        2.223132
  H            2.080725       -3.525901        3.154998
  O            0.551307        0.454648       -6.466854
  H            1.512769        0.260440       -6.330898
  H            0.118295       -0.435763       -6.483646
  O           -2.107639        3.758448        2.397276
  H           -2.725171        3.203805        1.857242
  H           -1.203737        3.452027        2.133307
  O           -1.189303        4.152522       -0.310334
  H           -2.160826        4.195803       -0.497096
  H           -1.044252        4.821159        0.405555
