 xtb: 6.7.1 (edcfbbe)
          06092517573D

 34 26  0     0  0            999 V2000
    0.2545   -1.6339   -0.5331 H   0  0  0  0  0  0  0  0  0  0  0  0
   -0.2703   -0.6947   -0.7175 C   0  0  0  0  0  0  0  0  0  0  0  0
    0.9966   -0.2985   -2.3624 H   0  0  0  0  0  0  0  0  0  0  0  0
   -1.2033   -0.8998   -1.2425 H   0  0  0  0  0  0  0  0  0  0  0  0
    0.5805    0.1851   -1.5358 N   0  0  0  0  0  0  0  0  0  0  0  0
   -1.2409   -0.6222    1.2234 H   0  0  0  0  0  0  0  0  0  0  0  0
   -0.5710   -0.0158    0.6159 C   0  0  0  0  0  0  0  0  0  0  0  0
    1.7330    0.6303    0.8251 O   0  0  0  0  0  0  0  0  0  0  0  0
    0.7053    0.2745    1.4388 C   0  0  0  0  0  0  0  0  0  0  0  0
    1.3224    0.5229   -0.8864 H   0  0  0  0  0  0  0  0  0  0  0  0
    0.6270    0.1531    2.6845 O   0  0  0  0  0  0  0  0  0  0  0  0
    0.0298    1.0010   -1.8917 H   0  0  0  0  0  0  0  0  0  0  0  0
   -1.0552    0.9482    0.4438 H   0  0  0  0  0  0  0  0  0  0  0  0
    1.6107   -0.6662   -3.9317 O   0  0  0  0  0  0  0  0  0  0  0  0
    1.2253    0.1047   -4.3908 H   0  0  0  0  0  0  0  0  0  0  0  0
    2.5640   -0.6049   -4.0322 H   0  0  0  0  0  0  0  0  0  0  0  0
   -0.8544    2.1644   -2.7634 O   0  0  0  0  0  0  0  0  0  0  0  0
   -0.6297    3.0947   -2.6838 H   0  0  0  0  0  0  0  0  0  0  0  0
   -0.6438    1.9000   -3.6793 H   0  0  0  0  0  0  0  0  0  0  0  0
    1.6613    1.2121    5.1202 O   0  0  0  0  0  0  0  0  0  0  0  0
    1.4445    0.8575    4.2418 H   0  0  0  0  0  0  0  0  0  0  0  0
    0.8170    1.2043    5.6075 H   0  0  0  0  0  0  0  0  0  0  0  0
   -1.0059    1.1524    6.1108 O   0  0  0  0  0  0  0  0  0  0  0  0
   -1.3151    0.5415    5.4095 H   0  0  0  0  0  0  0  0  0  0  0  0
   -1.5132    1.9622    5.9994 H   0  0  0  0  0  0  0  0  0  0  0  0
    0.0414    1.2446   -5.2405 O   0  0  0  0  0  0  0  0  0  0  0  0
   -0.3854    0.4247   -5.5581 H   0  0  0  0  0  0  0  0  0  0  0  0
    0.2376    1.7707   -6.0202 H   0  0  0  0  0  0  0  0  0  0  0  0
   -1.5631   -0.5924    4.0506 O   0  0  0  0  0  0  0  0  0  0  0  0
   -0.7708   -0.3065    3.5388 H   0  0  0  0  0  0  0  0  0  0  0  0
   -1.3681   -1.4836    4.3584 H   0  0  0  0  0  0  0  0  0  0  0  0
   -0.6211   -1.3470   -5.8308 O   0  0  0  0  0  0  0  0  0  0  0  0
    0.1070   -1.6788   -5.2879 H   0  0  0  0  0  0  0  0  0  0  0  0
   -1.4008   -1.8597   -5.6000 H   0  0  0  0  0  0  0  0  0  0  0  0
  1  2  1  0  0  0  0
  2  4  1  0  0  0  0
  2  5  1  0  0  0  0
  3  5  1  0  0  0  0
  2  7  1  0  0  0  0
  6  7  1  0  0  0  0
  7  9  1  0  0  0  0
  8  9  4  0  0  0  0
  5 10  1  0  0  0  0
  9 11  4  0  0  0  0
  5 12  1  0  0  0  0
  7 13  1  0  0  0  0
 14 15  1  0  0  0  0
 14 16  1  0  0  0  0
 17 18  1  0  0  0  0
 17 19  1  0  0  0  0
 20 21  1  0  0  0  0
 20 22  1  0  0  0  0
 23 24  1  0  0  0  0
 23 25  1  0  0  0  0
 26 27  1  0  0  0  0
 26 28  1  0  0  0  0
 29 30  1  0  0  0  0
 29 31  1  0  0  0  0
 32 33  1  0  0  0  0
 32 34  1  0  0  0  0
M  END
