          37
  Built with Packmol                                             
  N           -0.443767       -0.471812        1.745205
  C            0.693510        0.104360        1.026899
  C            0.252325        0.999585       -0.146245
  C           -0.573823        0.306802       -1.244857
  C            0.172762       -0.788129       -1.957711
  O            0.408222       -0.687945       -3.151027
  O            0.546344       -1.903284       -1.303739
  H           -0.087472       -1.004114        2.571270
  H           -1.081184        0.285863        2.081386
  H            1.280979        0.732860        1.731174
  H            1.368045       -0.703734        0.677139
  H            1.158667        1.443130       -0.611175
  H           -0.355788        1.834342        0.265274
  H           -1.517364       -0.100802       -0.829235
  H           -0.852734        1.086771       -1.985872
  H           -0.968720       -1.133893        1.131516
  O            2.209234        3.462004       -4.613289
  H            2.659408        2.771364       -4.064680
  H            1.348550        3.623874       -4.151084
  O           -2.507053        2.748496       -3.692342
  H           -1.852606        2.442364       -4.369536
  H           -2.809034        3.632469       -4.020994
  O            1.283266        1.942046        3.607701
  H            0.309162        1.814779        3.732342
  H            1.695355        1.166598        4.065388
  O            0.442012        1.312999       -4.604544
  H            1.371809        1.024681       -4.422991
  H            0.171773        1.806687       -3.789770
  O           -1.789917        1.526753        4.302330
  H           -1.514081        0.579775        4.214258
  H           -2.428914        1.529707        5.058827
  O            0.285958        1.756532        5.966848
  H           -0.067858        2.470619        6.554645
  H            0.794067        1.163241        6.575489
  O            2.110767        4.099821        4.254441
  H            1.142000        4.090496        4.049465
  H            2.540570        3.740150        3.438036
