 xtb: 6.7.1 (edcfbbe)
          06092518053D

 37 29  0     0  0            999 V2000
    0.1568    0.0124    2.0018 N   0  0  0  0  0  0  0  0  0  0  0  0
    1.2310    0.2807    1.0324 C   0  0  0  0  0  0  0  0  0  0  0  0
    0.8255    1.3607    0.0276 C   0  0  0  0  0  0  0  0  0  0  0  0
   -0.6090    1.2243   -0.5044 C   0  0  0  0  0  0  0  0  0  0  0  0
   -0.9789   -0.2118   -0.9524 C   0  0  0  0  0  0  0  0  0  0  0  0
   -0.9640   -0.4744   -2.1690 O   0  0  0  0  0  0  0  0  0  0  0  0
   -1.2913   -1.0177   -0.0381 O   0  0  0  0  0  0  0  0  0  0  0  0
    0.4674   -0.6851    2.7138 H   0  0  0  0  0  0  0  0  0  0  0  0
   -0.1258    0.8868    2.4799 H   0  0  0  0  0  0  0  0  0  0  0  0
    2.1231    0.6086    1.5666 H   0  0  0  0  0  0  0  0  0  0  0  0
    1.4471   -0.6445    0.4962 H   0  0  0  0  0  0  0  0  0  0  0  0
    1.5163    1.3190   -0.8155 H   0  0  0  0  0  0  0  0  0  0  0  0
    0.9208    2.3451    0.4872 H   0  0  0  0  0  0  0  0  0  0  0  0
   -1.3317    1.5179    0.2589 H   0  0  0  0  0  0  0  0  0  0  0  0
   -0.7371    1.8760   -1.3703 H   0  0  0  0  0  0  0  0  0  0  0  0
   -0.6328   -0.3968    1.4533 H   0  0  0  0  0  0  0  0  0  0  0  0
   -1.4908   -1.3595    5.2016 O   0  0  0  0  0  0  0  0  0  0  0  0
   -1.6248   -1.8037    6.0433 H   0  0  0  0  0  0  0  0  0  0  0  0
   -1.1736   -0.4521    5.4187 H   0  0  0  0  0  0  0  0  0  0  0  0
    0.8116   -1.8963    3.8748 O   0  0  0  0  0  0  0  0  0  0  0  0
    0.9012   -2.7985    3.5611 H   0  0  0  0  0  0  0  0  0  0  0  0
   -0.0518   -1.8331    4.3407 H   0  0  0  0  0  0  0  0  0  0  0  0
   -0.4871    1.0834    5.7673 O   0  0  0  0  0  0  0  0  0  0  0  0
   -0.9304    1.6539    6.3996 H   0  0  0  0  0  0  0  0  0  0  0  0
   -0.4401    1.5791    4.9212 H   0  0  0  0  0  0  0  0  0  0  0  0
    2.1188    0.1301    5.3018 O   0  0  0  0  0  0  0  0  0  0  0  0
    1.8762   -0.6814    4.8255 H   0  0  0  0  0  0  0  0  0  0  0  0
    1.2749    0.4649    5.6542 H   0  0  0  0  0  0  0  0  0  0  0  0
    2.5772    2.0394    3.4725 O   0  0  0  0  0  0  0  0  0  0  0  0
    2.5288    1.3132    4.1414 H   0  0  0  0  0  0  0  0  0  0  0  0
    3.2544    2.6453    3.7797 H   0  0  0  0  0  0  0  0  0  0  0  0
   -4.0606   -0.7853    4.2294 O   0  0  0  0  0  0  0  0  0  0  0  0
   -3.1534   -1.0367    4.4918 H   0  0  0  0  0  0  0  0  0  0  0  0
   -4.1765   -1.1059    3.3317 H   0  0  0  0  0  0  0  0  0  0  0  0
   -0.0802    2.4052    3.4280 O   0  0  0  0  0  0  0  0  0  0  0  0
    0.9068    2.3806    3.4253 H   0  0  0  0  0  0  0  0  0  0  0  0
   -0.3448    3.2991    3.2031 H   0  0  0  0  0  0  0  0  0  0  0  0
  1  2  1  0  0  0  0
  2  3  1  0  0  0  0
  3  4  1  0  0  0  0
  4  5  1  0  0  0  0
  5  6  2  0  0  0  0
  5  7  4  0  0  0  0
  1  8  1  0  0  0  0
  1  9  1  0  0  0  0
  2 10  1  0  0  0  0
  2 11  1  0  0  0  0
  3 12  1  0  0  0  0
  3 13  1  0  0  0  0
  4 14  1  0  0  0  0
  4 15  1  0  0  0  0
  1 16  1  0  0  0  0
 17 18  1  0  0  0  0
 17 19  1  0  0  0  0
 20 21  1  0  0  0  0
 20 22  1  0  0  0  0
 23 24  1  0  0  0  0
 23 25  1  0  0  0  0
 26 27  1  0  0  0  0
 26 28  1  0  0  0  0
 29 30  1  0  0  0  0
 29 31  1  0  0  0  0
 32 33  1  0  0  0  0
 32 34  1  0  0  0  0
 35 36  1  0  0  0  0
 35 37  1  0  0  0  0
M  END
