 xtb: 6.7.1 (edcfbbe)
          06092517573D

 34 26  0     0  0            999 V2000
    1.1998    0.2104    1.0743 H   0  0  0  0  0  0  0  0  0  0  0  0
    0.3714   -0.5000    1.0638 C   0  0  0  0  0  0  0  0  0  0  0  0
    0.9912   -1.1676   -0.8273 H   0  0  0  0  0  0  0  0  0  0  0  0
    0.6357   -1.3652    1.6734 H   0  0  0  0  0  0  0  0  0  0  0  0
    0.1160   -0.9152   -0.3267 N   0  0  0  0  0  0  0  0  0  0  0  0
   -0.7205    0.4866    2.6625 H   0  0  0  0  0  0  0  0  0  0  0  0
   -0.8678    0.1884    1.6254 C   0  0  0  0  0  0  0  0  0  0  0  0
   -1.0946    1.4460   -0.4136 O   0  0  0  0  0  0  0  0  0  0  0  0
   -1.2684    1.4623    0.8316 C   0  0  0  0  0  0  0  0  0  0  0  0
   -0.3392   -0.0818   -0.7629 H   0  0  0  0  0  0  0  0  0  0  0  0
   -1.7540    2.4093    1.4779 O   0  0  0  0  0  0  0  0  0  0  0  0
   -0.5427   -1.7213   -0.3723 H   0  0  0  0  0  0  0  0  0  0  0  0
   -1.7277   -0.4828    1.5846 H   0  0  0  0  0  0  0  0  0  0  0  0
    2.7036   -3.6856    0.0821 O   0  0  0  0  0  0  0  0  0  0  0  0
    2.6131   -2.9464   -0.5497 H   0  0  0  0  0  0  0  0  0  0  0  0
    3.5228   -4.1381   -0.1370 H   0  0  0  0  0  0  0  0  0  0  0  0
    0.1159   -4.9491    3.0025 O   0  0  0  0  0  0  0  0  0  0  0  0
    0.7595   -4.2088    2.9799 H   0  0  0  0  0  0  0  0  0  0  0  0
   -0.6289   -4.6402    3.5248 H   0  0  0  0  0  0  0  0  0  0  0  0
    1.3990   -2.1943   -4.1741 O   0  0  0  0  0  0  0  0  0  0  0  0
    1.0789   -3.0867   -4.3383 H   0  0  0  0  0  0  0  0  0  0  0  0
    0.7411   -1.5858   -4.5239 H   0  0  0  0  0  0  0  0  0  0  0  0
    1.9256   -2.9348    2.6200 O   0  0  0  0  0  0  0  0  0  0  0  0
    2.7081   -2.8351    3.1678 H   0  0  0  0  0  0  0  0  0  0  0  0
    2.2384   -3.1987    1.7309 H   0  0  0  0  0  0  0  0  0  0  0  0
    0.2479   -5.0588    0.2257 O   0  0  0  0  0  0  0  0  0  0  0  0
    1.1238   -4.6444    0.1177 H   0  0  0  0  0  0  0  0  0  0  0  0
    0.1428   -5.1733    1.1880 H   0  0  0  0  0  0  0  0  0  0  0  0
   -1.4759   -3.1539   -0.5578 O   0  0  0  0  0  0  0  0  0  0  0  0
   -0.8743   -3.9010   -0.3235 H   0  0  0  0  0  0  0  0  0  0  0  0
   -2.3530   -3.4071   -0.2663 H   0  0  0  0  0  0  0  0  0  0  0  0
    2.4313   -1.5939   -1.7133 O   0  0  0  0  0  0  0  0  0  0  0  0
    2.1023   -1.8434   -2.6004 H   0  0  0  0  0  0  0  0  0  0  0  0
    3.0861   -0.9040   -1.8519 H   0  0  0  0  0  0  0  0  0  0  0  0
  1  2  1  0  0  0  0
  2  4  1  0  0  0  0
  2  5  1  0  0  0  0
  3  5  1  0  0  0  0
  2  7  1  0  0  0  0
  6  7  1  0  0  0  0
  7  9  1  0  0  0  0
  8  9  4  0  0  0  0
  5 10  1  0  0  0  0
  9 11  2  0  0  0  0
  5 12  1  0  0  0  0
  7 13  1  0  0  0  0
 14 15  1  0  0  0  0
 14 16  1  0  0  0  0
 17 18  1  0  0  0  0
 17 19  1  0  0  0  0
 20 21  1  0  0  0  0
 20 22  1  0  0  0  0
 23 24  1  0  0  0  0
 23 25  1  0  0  0  0
 26 27  1  0  0  0  0
 26 28  1  0  0  0  0
 29 30  1  0  0  0  0
 29 31  1  0  0  0  0
 32 33  1  0  0  0  0
 32 34  1  0  0  0  0
M  END
