          37
  Built with Packmol                                             
  N           -0.443767       -0.471812        1.745205
  C            0.693510        0.104360        1.026899
  C            0.252325        0.999585       -0.146245
  C           -0.573823        0.306802       -1.244857
  C            0.172762       -0.788129       -1.957711
  O            0.408222       -0.687945       -3.151027
  O            0.546344       -1.903284       -1.303739
  H           -0.087472       -1.004114        2.571270
  H           -1.081184        0.285863        2.081386
  H            1.280979        0.732860        1.731174
  H            1.368045       -0.703734        0.677139
  H            1.158667        1.443130       -0.611175
  H           -0.355788        1.834342        0.265274
  H           -1.517364       -0.100802       -0.829235
  H           -0.852734        1.086771       -1.985872
  H           -0.968720       -1.133893        1.131516
  O            3.057039        0.005716       -3.846333
  H            4.021723        0.161249       -3.685693
  H            2.803217       -0.684513       -3.183181
  O           -2.908457       -0.933795       -2.779545
  H           -2.077762       -1.080801       -3.298145
  H           -3.624230       -0.896687       -3.462849
  O           -0.787861        0.990293       -5.947827
  H           -1.309370        0.164744       -5.783179
  H           -0.267356        0.795616       -6.767453
  O            0.671422        4.025858       -3.503091
  H            0.635296        4.049014       -4.492418
  H            0.982262        4.929934       -3.244948
  O           -3.519016        2.100772       -4.879968
  H           -2.557711        1.938476       -5.053643
  H           -3.530647        2.836509       -4.217270
  O           -3.727709        1.247913       -2.212644
  H           -3.604732        2.222809       -2.089902
  H           -4.314078        1.169858       -3.006805
  O           -1.087452        2.714292       -3.408064
  H           -1.439023        3.486356       -3.918872
  H           -0.611425        2.166879       -4.082119
