 xtb: 6.7.1 (edcfbbe)
          06092517543D

 34 26  0     0  0            999 V2000
   -0.2339   -1.4558    1.0341 C   0  0  0  0  0  0  0  0  0  0  0  0
    0.6557   -1.1413    2.2426 C   0  0  0  0  0  0  0  0  0  0  0  0
    0.3869   -1.7824    3.3081 O   0  0  0  0  0  0  0  0  0  0  0  0
    1.5675   -0.3102    2.1454 O   0  0  0  0  0  0  0  0  0  0  0  0
    0.0417   -0.5454   -0.1491 C   0  0  0  0  0  0  0  0  0  0  0  0
   -0.8537   -0.8952   -1.2680 N   0  0  0  0  0  0  0  0  0  0  0  0
   -0.0483   -2.4979    0.7700 H   0  0  0  0  0  0  0  0  0  0  0  0
   -1.2700   -1.3710    1.3649 H   0  0  0  0  0  0  0  0  0  0  0  0
   -0.1138    0.4918    0.1502 H   0  0  0  0  0  0  0  0  0  0  0  0
    1.0845   -0.6532   -0.4487 H   0  0  0  0  0  0  0  0  0  0  0  0
   -1.8436   -0.8217   -0.9613 H   0  0  0  0  0  0  0  0  0  0  0  0
   -0.6980   -1.8943   -1.5654 H   0  0  0  0  0  0  0  0  0  0  0  0
   -0.7046   -0.2797   -2.0679 H   0  0  0  0  0  0  0  0  0  0  0  0
   -0.6028   -4.3484    2.8174 O   0  0  0  0  0  0  0  0  0  0  0  0
   -0.1338   -3.5298    3.0640 H   0  0  0  0  0  0  0  0  0  0  0  0
   -1.5251   -4.1800    3.0457 H   0  0  0  0  0  0  0  0  0  0  0  0
   -3.5087   -0.7837   -0.4150 O   0  0  0  0  0  0  0  0  0  0  0  0
   -4.0353   -0.0981    0.0032 H   0  0  0  0  0  0  0  0  0  0  0  0
   -4.0384   -1.5849   -0.4452 H   0  0  0  0  0  0  0  0  0  0  0  0
    0.2483   -4.8845    0.2657 O   0  0  0  0  0  0  0  0  0  0  0  0
   -0.1247   -4.7797    1.1623 H   0  0  0  0  0  0  0  0  0  0  0  0
    1.0101   -5.4618    0.3634 H   0  0  0  0  0  0  0  0  0  0  0  0
    3.2983   -2.5886    7.1735 O   0  0  0  0  0  0  0  0  0  0  0  0
    2.9458   -2.0746    6.4262 H   0  0  0  0  0  0  0  0  0  0  0  0
    2.8306   -2.2663    7.9505 H   0  0  0  0  0  0  0  0  0  0  0  0
   -0.5041   -3.4872   -2.0155 O   0  0  0  0  0  0  0  0  0  0  0  0
   -0.3485   -4.0350   -1.2277 H   0  0  0  0  0  0  0  0  0  0  0  0
    0.1561   -3.7441   -2.6654 H   0  0  0  0  0  0  0  0  0  0  0  0
   -2.3264   -2.0072    3.8253 O   0  0  0  0  0  0  0  0  0  0  0  0
   -2.5119   -1.8023    4.7459 H   0  0  0  0  0  0  0  0  0  0  0  0
   -1.3668   -1.8742    3.7107 H   0  0  0  0  0  0  0  0  0  0  0  0
    2.1861   -0.9427    5.1754 O   0  0  0  0  0  0  0  0  0  0  0  0
    1.5188   -1.2883    4.5403 H   0  0  0  0  0  0  0  0  0  0  0  0
    2.7226   -0.3332    4.6579 H   0  0  0  0  0  0  0  0  0  0  0  0
  1  2  1  0  0  0  0
  2  3  4  0  0  0  0
  2  4  2  0  0  0  0
  1  5  1  0  0  0  0
  5  6  1  0  0  0  0
  1  7  1  0  0  0  0
  1  8  1  0  0  0  0
  5  9  1  0  0  0  0
  5 10  1  0  0  0  0
  6 11  1  0  0  0  0
  6 12  1  0  0  0  0
  6 13  1  0  0  0  0
 14 15  1  0  0  0  0
 14 16  1  0  0  0  0
 17 18  1  0  0  0  0
 17 19  1  0  0  0  0
 20 21  1  0  0  0  0
 20 22  1  0  0  0  0
 23 24  1  0  0  0  0
 23 25  1  0  0  0  0
 26 27  1  0  0  0  0
 26 28  1  0  0  0  0
 29 30  1  0  0  0  0
 29 31  1  0  0  0  0
 32 33  1  0  0  0  0
 32 34  1  0  0  0  0
M  END
