 xtb: 6.7.1 (edcfbbe)
          06112501353D

 46 35  0     0  0            999 V2000
   -0.3285    1.0818   -0.3940 N   0  0  0  0  0  0  0  0  0  0  0  0
    0.6038    2.1392   -0.8055 C   0  0  0  0  0  0  0  0  0  0  0  0
    0.3390    2.5855   -2.2437 C   0  0  0  0  0  0  0  0  0  0  0  0
    0.8701    1.6282   -3.3239 C   0  0  0  0  0  0  0  0  0  0  0  0
   -0.0365    0.4422   -3.6498 C   0  0  0  0  0  0  0  0  0  0  0  0
   -0.3887    0.2656   -4.8379 O   0  0  0  0  0  0  0  0  0  0  0  0
   -0.3906   -0.3227   -2.7183 O   0  0  0  0  0  0  0  0  0  0  0  0
   -0.0695    0.6642    0.5443 H   0  0  0  0  0  0  0  0  0  0  0  0
   -1.3005    1.4451   -0.3799 H   0  0  0  0  0  0  0  0  0  0  0  0
    0.4831    2.9931   -0.1387 H   0  0  0  0  0  0  0  0  0  0  0  0
    1.6252    1.7672   -0.7121 H   0  0  0  0  0  0  0  0  0  0  0  0
    0.8298    3.5466   -2.3974 H   0  0  0  0  0  0  0  0  0  0  0  0
   -0.7335    2.7374   -2.3800 H   0  0  0  0  0  0  0  0  0  0  0  0
    1.8345    1.2182   -3.0130 H   0  0  0  0  0  0  0  0  0  0  0  0
    1.0180    2.1686   -4.2607 H   0  0  0  0  0  0  0  0  0  0  0  0
   -0.3039    0.3364   -1.1151 H   0  0  0  0  0  0  0  0  0  0  0  0
    0.4059   -0.1303    1.8763 O   0  0  0  0  0  0  0  0  0  0  0  0
    1.0008   -0.8122    1.5057 H   0  0  0  0  0  0  0  0  0  0  0  0
   -0.3858   -0.6199    2.1746 H   0  0  0  0  0  0  0  0  0  0  0  0
   -3.0601   -0.5200   -2.1861 O   0  0  0  0  0  0  0  0  0  0  0  0
   -3.4711   -0.6247   -3.0550 H   0  0  0  0  0  0  0  0  0  0  0  0
   -2.1001   -0.5299   -2.3763 H   0  0  0  0  0  0  0  0  0  0  0  0
   -3.0973   -0.4459   -5.0408 O   0  0  0  0  0  0  0  0  0  0  0  0
   -3.5385    0.0609   -5.7283 H   0  0  0  0  0  0  0  0  0  0  0  0
   -2.1732   -0.1348   -5.0250 H   0  0  0  0  0  0  0  0  0  0  0  0
   -2.9530    1.8907   -0.8560 O   0  0  0  0  0  0  0  0  0  0  0  0
   -3.1483    1.0662   -1.3434 H   0  0  0  0  0  0  0  0  0  0  0  0
   -3.6662    2.0146   -0.2241 H   0  0  0  0  0  0  0  0  0  0  0  0
   -0.0986   -1.8924   -1.9051 H   0  0  0  0  0  0  0  0  0  0  0  0
    0.1064   -3.4107   -2.0589 H   0  0  0  0  0  0  0  0  0  0  0  0
   -0.0101   -2.7123   -1.3899 O   0  0  0  0  0  0  0  0  0  0  0  0
    1.1819   -2.3609   -0.1133 H   0  0  0  0  0  0  0  0  0  0  0  0
    1.9310   -2.9573    1.1031 H   0  0  0  0  0  0  0  0  0  0  0  0
    1.7968   -2.1407    0.6151 O   0  0  0  0  0  0  0  0  0  0  0  0
    0.3060   -4.2618   -3.6480 O   0  0  0  0  0  0  0  0  0  0  0  0
    1.1234   -4.5787   -4.0423 H   0  0  0  0  0  0  0  0  0  0  0  0
   -0.1011   -3.6645   -4.3056 H   0  0  0  0  0  0  0  0  0  0  0  0
   -1.8854   -1.5608    2.3691 O   0  0  0  0  0  0  0  0  0  0  0  0
   -2.7096   -1.2791    2.7733 H   0  0  0  0  0  0  0  0  0  0  0  0
   -2.1199   -1.9177    1.4848 H   0  0  0  0  0  0  0  0  0  0  0  0
   -1.6080   -2.6475   -0.5344 H   0  0  0  0  0  0  0  0  0  0  0  0
   -2.4732   -2.4070   -0.1508 O   0  0  0  0  0  0  0  0  0  0  0  0
   -2.8591   -1.7820   -0.7872 H   0  0  0  0  0  0  0  0  0  0  0  0
   -1.7592   -2.4377   -5.4710 H   0  0  0  0  0  0  0  0  0  0  0  0
   -0.7956   -2.4482   -5.4228 O   0  0  0  0  0  0  0  0  0  0  0  0
   -0.5438   -1.5197   -5.2608 H   0  0  0  0  0  0  0  0  0  0  0  0
  1  2  1  0  0  0  0
  2  3  1  0  0  0  0
  3  4  1  0  0  0  0
  4  5  1  0  0  0  0
  5  6  4  0  0  0  0
  5  7  4  0  0  0  0
  1  8  1  0  0  0  0
  1  9  1  0  0  0  0
  2 10  1  0  0  0  0
  2 11  1  0  0  0  0
  3 12  1  0  0  0  0
  3 13  1  0  0  0  0
  4 14  1  0  0  0  0
  4 15  1  0  0  0  0
  1 16  1  0  0  0  0
 17 18  1  0  0  0  0
 17 19  1  0  0  0  0
 20 21  1  0  0  0  0
 20 22  1  0  0  0  0
 23 24  1  0  0  0  0
 23 25  1  0  0  0  0
 26 27  1  0  0  0  0
 26 28  1  0  0  0  0
 29 31  1  0  0  0  0
 30 31  1  0  0  0  0
 32 34  1  0  0  0  0
 33 34  1  0  0  0  0
 35 36  1  0  0  0  0
 35 37  1  0  0  0  0
 38 39  1  0  0  0  0
 38 40  1  0  0  0  0
 41 42  1  0  0  0  0
 42 43  1  0  0  0  0
 44 45  1  0  0  0  0
 45 46  1  0  0  0  0
M  END
