 xtb: 6.7.1 (edcfbbe)
          06092518013D

 37 29  0     0  0            999 V2000
    0.0421   -0.7186    2.0038 N   0  0  0  0  0  0  0  0  0  0  0  0
    0.6391   -0.7820    0.6586 C   0  0  0  0  0  0  0  0  0  0  0  0
   -0.0875    0.1102   -0.3422 C   0  0  0  0  0  0  0  0  0  0  0  0
    0.6623    0.1261   -1.6762 C   0  0  0  0  0  0  0  0  0  0  0  0
   -0.2067    0.7759   -2.7716 C   0  0  0  0  0  0  0  0  0  0  0  0
   -0.0613    1.9909   -2.9988 O   0  0  0  0  0  0  0  0  0  0  0  0
   -1.0312    0.0278   -3.3619 O   0  0  0  0  0  0  0  0  0  0  0  0
    0.1119    0.2209    2.3952 H   0  0  0  0  0  0  0  0  0  0  0  0
   -0.9700   -0.9877    1.9882 H   0  0  0  0  0  0  0  0  0  0  0  0
    0.5889   -1.8121    0.3087 H   0  0  0  0  0  0  0  0  0  0  0  0
    1.6853   -0.4802    0.7127 H   0  0  0  0  0  0  0  0  0  0  0  0
   -0.1657    1.1373    0.0201 H   0  0  0  0  0  0  0  0  0  0  0  0
   -1.0988   -0.2618   -0.5166 H   0  0  0  0  0  0  0  0  0  0  0  0
    0.8917   -0.8936   -1.9872 H   0  0  0  0  0  0  0  0  0  0  0  0
    1.5852    0.7018   -1.5947 H   0  0  0  0  0  0  0  0  0  0  0  0
    0.5305   -1.4091    2.6258 H   0  0  0  0  0  0  0  0  0  0  0  0
    0.8276   -4.0753   -4.3937 O   0  0  0  0  0  0  0  0  0  0  0  0
    1.1346   -3.5234   -5.1181 H   0  0  0  0  0  0  0  0  0  0  0  0
    0.1505   -3.5529   -3.9258 H   0  0  0  0  0  0  0  0  0  0  0  0
   -0.0501   -3.8231   -0.6570 O   0  0  0  0  0  0  0  0  0  0  0  0
   -0.3430   -3.3590   -1.4582 H   0  0  0  0  0  0  0  0  0  0  0  0
   -0.5409   -4.6497   -0.6338 H   0  0  0  0  0  0  0  0  0  0  0  0
   -2.5211   -1.5456    2.4299 O   0  0  0  0  0  0  0  0  0  0  0  0
   -2.2216   -2.2007    3.0970 H   0  0  0  0  0  0  0  0  0  0  0  0
   -3.1920   -1.9807    1.9007 H   0  0  0  0  0  0  0  0  0  0  0  0
   -1.3420   -3.2495    4.2053 O   0  0  0  0  0  0  0  0  0  0  0  0
   -1.3520   -3.0620    5.1477 H   0  0  0  0  0  0  0  0  0  0  0  0
   -0.4087   -3.2233    3.9279 H   0  0  0  0  0  0  0  0  0  0  0  0
   -1.0974   -2.5960   -2.9749 O   0  0  0  0  0  0  0  0  0  0  0  0
   -1.0306   -1.6156   -3.1082 H   0  0  0  0  0  0  0  0  0  0  0  0
   -2.0022   -2.8153   -3.2197 H   0  0  0  0  0  0  0  0  0  0  0  0
    2.1730   -3.8290    1.0387 O   0  0  0  0  0  0  0  0  0  0  0  0
    1.4447   -3.8747    0.3966 H   0  0  0  0  0  0  0  0  0  0  0  0
    2.9796   -4.0273    0.5578 H   0  0  0  0  0  0  0  0  0  0  0  0
    1.3055   -2.7149    3.3809 O   0  0  0  0  0  0  0  0  0  0  0  0
    2.0793   -2.5710    3.9337 H   0  0  0  0  0  0  0  0  0  0  0  0
    1.6145   -3.2024    2.5938 H   0  0  0  0  0  0  0  0  0  0  0  0
  1  2  1  0  0  0  0
  2  3  1  0  0  0  0
  3  4  1  0  0  0  0
  4  5  1  0  0  0  0
  5  6  2  0  0  0  0
  5  7  4  0  0  0  0
  1  8  1  0  0  0  0
  1  9  1  0  0  0  0
  2 10  1  0  0  0  0
  2 11  1  0  0  0  0
  3 12  1  0  0  0  0
  3 13  1  0  0  0  0
  4 14  1  0  0  0  0
  4 15  1  0  0  0  0
  1 16  1  0  0  0  0
 17 18  1  0  0  0  0
 17 19  1  0  0  0  0
 20 21  1  0  0  0  0
 20 22  1  0  0  0  0
 23 24  1  0  0  0  0
 23 25  1  0  0  0  0
 26 27  1  0  0  0  0
 26 28  1  0  0  0  0
 29 30  1  0  0  0  0
 29 31  1  0  0  0  0
 32 33  1  0  0  0  0
 32 34  1  0  0  0  0
 35 36  1  0  0  0  0
 35 37  1  0  0  0  0
M  END
