 xtb: 6.7.1 (edcfbbe)
          06092517583D

 34 26  0     0  0            999 V2000
    1.4135    0.9125   -0.2965 H   0  0  0  0  0  0  0  0  0  0  0  0
    0.7533    0.2138    0.2192 C   0  0  0  0  0  0  0  0  0  0  0  0
   -0.0098   -0.7361   -1.4631 H   0  0  0  0  0  0  0  0  0  0  0  0
    1.3028   -0.6925    0.4760 H   0  0  0  0  0  0  0  0  0  0  0  0
   -0.3569   -0.1573   -0.6742 N   0  0  0  0  0  0  0  0  0  0  0  0
    1.0099    0.8486    2.2754 H   0  0  0  0  0  0  0  0  0  0  0  0
    0.2465    0.8666    1.4973 C   0  0  0  0  0  0  0  0  0  0  0  0
   -0.1654    2.8293    0.1783 O   0  0  0  0  0  0  0  0  0  0  0  0
   -0.1741    2.3371    1.3273 C   0  0  0  0  0  0  0  0  0  0  0  0
   -0.8381    0.6730   -1.0672 H   0  0  0  0  0  0  0  0  0  0  0  0
   -0.5136    2.9589    2.3634 O   0  0  0  0  0  0  0  0  0  0  0  0
   -1.0633   -0.7094   -0.1362 H   0  0  0  0  0  0  0  0  0  0  0  0
   -0.6229    0.3330    1.8849 H   0  0  0  0  0  0  0  0  0  0  0  0
   -2.0661   -1.6729    0.8667 O   0  0  0  0  0  0  0  0  0  0  0  0
   -2.7562   -2.2060    0.4626 H   0  0  0  0  0  0  0  0  0  0  0  0
   -1.4581   -2.2957    1.3191 H   0  0  0  0  0  0  0  0  0  0  0  0
   -1.9554    1.6037   -2.2058 O   0  0  0  0  0  0  0  0  0  0  0  0
   -1.6097    1.9056   -3.0515 H   0  0  0  0  0  0  0  0  0  0  0  0
   -2.2205    2.4103   -1.7348 H   0  0  0  0  0  0  0  0  0  0  0  0
    0.5700   -1.7530   -2.7801 O   0  0  0  0  0  0  0  0  0  0  0  0
    1.1839   -1.4131   -3.4365 H   0  0  0  0  0  0  0  0  0  0  0  0
   -0.1017   -2.2629   -3.2426 H   0  0  0  0  0  0  0  0  0  0  0  0
   -0.2494   -3.2600    2.1396 O   0  0  0  0  0  0  0  0  0  0  0  0
   -0.2207   -3.1337    3.0919 H   0  0  0  0  0  0  0  0  0  0  0  0
    0.6377   -3.0311    1.8055 H   0  0  0  0  0  0  0  0  0  0  0  0
   -2.3016    4.0474   -0.8873 O   0  0  0  0  0  0  0  0  0  0  0  0
   -2.8790    4.3301   -0.1731 H   0  0  0  0  0  0  0  0  0  0  0  0
   -1.4578    3.7730   -0.4636 H   0  0  0  0  0  0  0  0  0  0  0  0
    0.1713    1.8346    4.7405 O   0  0  0  0  0  0  0  0  0  0  0  0
   -0.3287    2.2915    5.4231 H   0  0  0  0  0  0  0  0  0  0  0  0
   -0.0879    2.2646    3.8951 H   0  0  0  0  0  0  0  0  0  0  0  0
    2.3500   -2.6467    1.2785 O   0  0  0  0  0  0  0  0  0  0  0  0
    2.6985   -3.2366    0.6026 H   0  0  0  0  0  0  0  0  0  0  0  0
    3.0450   -2.5290    1.9328 H   0  0  0  0  0  0  0  0  0  0  0  0
  1  2  1  0  0  0  0
  2  4  1  0  0  0  0
  2  5  1  0  0  0  0
  3  5  1  0  0  0  0
  2  7  1  0  0  0  0
  6  7  1  0  0  0  0
  7  9  1  0  0  0  0
  8  9  4  0  0  0  0
  5 10  1  0  0  0  0
  9 11  4  0  0  0  0
  5 12  1  0  0  0  0
  7 13  1  0  0  0  0
 14 15  1  0  0  0  0
 14 16  1  0  0  0  0
 17 18  1  0  0  0  0
 17 19  1  0  0  0  0
 20 21  1  0  0  0  0
 20 22  1  0  0  0  0
 23 24  1  0  0  0  0
 23 25  1  0  0  0  0
 26 27  1  0  0  0  0
 26 28  1  0  0  0  0
 29 30  1  0  0  0  0
 29 31  1  0  0  0  0
 32 33  1  0  0  0  0
 32 34  1  0  0  0  0
M  END
