 xtb: 6.7.1 (edcfbbe)
          06092517533D

 34 26  0     0  0            999 V2000
   -0.3812   -0.6879    0.4998 C   0  0  0  0  0  0  0  0  0  0  0  0
   -0.6253    0.3274    1.6377 C   0  0  0  0  0  0  0  0  0  0  0  0
   -0.8610   -0.1575    2.7793 O   0  0  0  0  0  0  0  0  0  0  0  0
   -0.5919    1.5418    1.3781 O   0  0  0  0  0  0  0  0  0  0  0  0
    0.2719   -0.0522   -0.7151 C   0  0  0  0  0  0  0  0  0  0  0  0
    0.4117   -1.0458   -1.7913 N   0  0  0  0  0  0  0  0  0  0  0  0
    0.2404   -1.4891    0.8963 H   0  0  0  0  0  0  0  0  0  0  0  0
   -1.3575   -1.1053    0.2471 H   0  0  0  0  0  0  0  0  0  0  0  0
   -0.3275    0.7987   -1.0422 H   0  0  0  0  0  0  0  0  0  0  0  0
    1.2536    0.3282   -0.4298 H   0  0  0  0  0  0  0  0  0  0  0  0
   -0.5061   -1.3299   -2.1926 H   0  0  0  0  0  0  0  0  0  0  0  0
    0.8377   -1.9476   -1.4292 H   0  0  0  0  0  0  0  0  0  0  0  0
    0.9934   -0.7156   -2.5638 H   0  0  0  0  0  0  0  0  0  0  0  0
    1.1013   -2.6815   -4.0036 O   0  0  0  0  0  0  0  0  0  0  0  0
    1.4093   -3.2579   -3.2936 H   0  0  0  0  0  0  0  0  0  0  0  0
    0.1344   -2.7075   -3.9570 H   0  0  0  0  0  0  0  0  0  0  0  0
   -2.4549   -3.4280    1.1581 O   0  0  0  0  0  0  0  0  0  0  0  0
   -3.3145   -3.4295    1.5854 H   0  0  0  0  0  0  0  0  0  0  0  0
   -1.7942   -3.2427    1.8505 H   0  0  0  0  0  0  0  0  0  0  0  0
    1.6635   -3.3589    1.7159 O   0  0  0  0  0  0  0  0  0  0  0  0
    0.8632   -3.2317    2.2570 H   0  0  0  0  0  0  0  0  0  0  0  0
    2.4067   -3.0537    2.2416 H   0  0  0  0  0  0  0  0  0  0  0  0
   -1.6503   -2.3851   -3.0307 O   0  0  0  0  0  0  0  0  0  0  0  0
   -2.5670   -2.2175   -3.2587 H   0  0  0  0  0  0  0  0  0  0  0  0
   -1.6376   -3.1503   -2.4229 H   0  0  0  0  0  0  0  0  0  0  0  0
   -0.6515   -2.7484    3.1467 O   0  0  0  0  0  0  0  0  0  0  0  0
   -0.7278   -1.7618    3.0204 H   0  0  0  0  0  0  0  0  0  0  0  0
   -0.7977   -2.9045    4.0843 H   0  0  0  0  0  0  0  0  0  0  0  0
    1.1981   -3.5140   -1.0426 O   0  0  0  0  0  0  0  0  0  0  0  0
    1.4684   -3.5489   -0.1116 H   0  0  0  0  0  0  0  0  0  0  0  0
    0.3064   -3.9130   -1.0716 H   0  0  0  0  0  0  0  0  0  0  0  0
   -1.4291   -4.3958   -1.1741 O   0  0  0  0  0  0  0  0  0  0  0  0
   -1.6700   -5.3243   -1.2272 H   0  0  0  0  0  0  0  0  0  0  0  0
   -1.8096   -4.0519   -0.3437 H   0  0  0  0  0  0  0  0  0  0  0  0
  1  2  1  0  0  0  0
  2  3  4  0  0  0  0
  2  4  2  0  0  0  0
  1  5  1  0  0  0  0
  5  6  1  0  0  0  0
  1  7  1  0  0  0  0
  1  8  1  0  0  0  0
  5  9  1  0  0  0  0
  5 10  1  0  0  0  0
  6 11  1  0  0  0  0
  6 12  1  0  0  0  0
  6 13  1  0  0  0  0
 14 15  1  0  0  0  0
 14 16  1  0  0  0  0
 17 18  1  0  0  0  0
 17 19  1  0  0  0  0
 20 21  1  0  0  0  0
 20 22  1  0  0  0  0
 23 24  1  0  0  0  0
 23 25  1  0  0  0  0
 26 27  1  0  0  0  0
 26 28  1  0  0  0  0
 29 30  1  0  0  0  0
 29 31  1  0  0  0  0
 32 33  1  0  0  0  0
 32 34  1  0  0  0  0
M  END
