 xtb: 6.7.1 (edcfbbe)
          06092517593D

 34 26  0     0  0            999 V2000
    1.2471   -0.1487   -0.9210 H   0  0  0  0  0  0  0  0  0  0  0  0
    0.1831   -0.3458   -0.7792 C   0  0  0  0  0  0  0  0  0  0  0  0
   -0.2719    1.2277   -2.1025 H   0  0  0  0  0  0  0  0  0  0  0  0
   -0.1129   -1.1919   -1.4014 H   0  0  0  0  0  0  0  0  0  0  0  0
   -0.5805    0.8493   -1.1705 N   0  0  0  0  0  0  0  0  0  0  0  0
    0.4297   -1.5581    1.0129 H   0  0  0  0  0  0  0  0  0  0  0  0
   -0.0847   -0.6540    0.6907 C   0  0  0  0  0  0  0  0  0  0  0  0
    0.1797    1.6698    1.2568 O   0  0  0  0  0  0  0  0  0  0  0  0
    0.3628    0.4881    1.6425 C   0  0  0  0  0  0  0  0  0  0  0  0
   -0.3976    1.5356   -0.4082 H   0  0  0  0  0  0  0  0  0  0  0  0
    0.8564    0.1566    2.7377 O   0  0  0  0  0  0  0  0  0  0  0  0
   -1.6027    0.6324   -1.1820 H   0  0  0  0  0  0  0  0  0  0  0  0
   -1.1567   -0.7902    0.8507 H   0  0  0  0  0  0  0  0  0  0  0  0
   -1.2594    0.3304   -5.3917 O   0  0  0  0  0  0  0  0  0  0  0  0
   -1.0601    0.3619   -6.3307 H   0  0  0  0  0  0  0  0  0  0  0  0
   -1.2395   -0.6073   -5.1285 H   0  0  0  0  0  0  0  0  0  0  0  0
   -1.0301    4.3330   -3.9396 O   0  0  0  0  0  0  0  0  0  0  0  0
   -0.8312    4.9642   -4.6369 H   0  0  0  0  0  0  0  0  0  0  0  0
   -1.3631    4.8286   -3.1858 H   0  0  0  0  0  0  0  0  0  0  0  0
   -0.1859   -3.3560   -2.3813 O   0  0  0  0  0  0  0  0  0  0  0  0
   -0.6724   -3.9167   -1.7699 H   0  0  0  0  0  0  0  0  0  0  0  0
    0.6983   -3.7248   -2.4677 H   0  0  0  0  0  0  0  0  0  0  0  0
   -3.2510    0.1932   -1.1623 O   0  0  0  0  0  0  0  0  0  0  0  0
   -3.8878    0.8755   -0.9376 H   0  0  0  0  0  0  0  0  0  0  0  0
   -3.4417   -0.0688   -2.0932 H   0  0  0  0  0  0  0  0  0  0  0  0
    0.1904    1.8091   -3.5867 O   0  0  0  0  0  0  0  0  0  0  0  0
   -0.1529    2.7101   -3.6971 H   0  0  0  0  0  0  0  0  0  0  0  0
   -0.2834    1.2699   -4.2518 H   0  0  0  0  0  0  0  0  0  0  0  0
   -3.5623   -0.4010   -3.7748 O   0  0  0  0  0  0  0  0  0  0  0  0
   -3.1038    0.2865   -4.2780 H   0  0  0  0  0  0  0  0  0  0  0  0
   -3.0438   -1.2055   -3.9468 H   0  0  0  0  0  0  0  0  0  0  0  0
   -1.6129   -2.3046   -4.5202 O   0  0  0  0  0  0  0  0  0  0  0  0
   -1.0859   -2.5977   -3.7552 H   0  0  0  0  0  0  0  0  0  0  0  0
   -1.7518   -3.0806   -5.0705 H   0  0  0  0  0  0  0  0  0  0  0  0
  1  2  1  0  0  0  0
  2  4  1  0  0  0  0
  2  5  1  0  0  0  0
  3  5  1  0  0  0  0
  2  7  1  0  0  0  0
  6  7  1  0  0  0  0
  7  9  1  0  0  0  0
  8  9  4  0  0  0  0
  5 10  1  0  0  0  0
  9 11  2  0  0  0  0
  5 12  1  0  0  0  0
  7 13  1  0  0  0  0
 14 15  1  0  0  0  0
 14 16  1  0  0  0  0
 17 18  1  0  0  0  0
 17 19  1  0  0  0  0
 20 21  1  0  0  0  0
 20 22  1  0  0  0  0
 23 24  1  0  0  0  0
 23 25  1  0  0  0  0
 26 27  1  0  0  0  0
 26 28  1  0  0  0  0
 29 30  1  0  0  0  0
 29 31  1  0  0  0  0
 32 33  1  0  0  0  0
 32 34  1  0  0  0  0
M  END
