          34
  Built with Packmol                                             
  C            0.000717       -0.522558        0.678044
  C            0.000155        0.093927        2.050368
  O           -0.000195       -0.630131        3.032262
  O           -0.000797        1.431559        2.216433
  C            0.000989        0.525311       -0.443260
  N           -0.000301       -0.116591       -1.756652
  H            0.902593       -1.162928        0.578888
  H           -0.902640       -1.160238        0.579017
  H           -0.902002        1.167413       -0.351037
  H            0.903666        1.168949       -0.351720
  H           -0.857069       -0.705532       -1.867523
  H            0.853228       -0.710069       -1.867795
  H            0.001656        0.620887       -2.497026
  O            2.191901       -0.612138       -4.820707
  H            2.309621       -0.110928       -5.666604
  H            2.468328        0.024630       -4.114501
  O           -1.920152       -2.188726       -4.739292
  H           -1.788572       -1.607777       -5.530364
  H           -1.662437       -1.621695       -3.969440
  O           -2.658055        1.694075       -3.627377
  H           -2.842933        0.795372       -3.999888
  H           -2.144889        2.156092       -4.337176
  O            0.513529        3.317057       -4.150614
  H            1.226412        3.203301       -4.828455
  H            0.730596        2.653341       -3.448492
  O           -0.332277        0.862865       -5.793827
  H           -1.130919        0.484515       -5.347025
  H           -0.328877        1.817189       -5.529499
  O            2.591932       -3.064031       -3.920650
  H            2.606399       -2.784505       -4.870527
  H            2.109159       -2.335544       -3.454980
  O            0.474304       -3.280967       -4.654911
  H           -0.173202       -3.228454       -3.907522
  H            0.167881       -2.592610       -5.297469
