 xtb: 6.7.1 (edcfbbe)
          06092517583D

 34 26  0     0  0            999 V2000
    0.9153    0.0999   -1.3769 H   0  0  0  0  0  0  0  0  0  0  0  0
   -0.1429    0.1242   -1.6400 C   0  0  0  0  0  0  0  0  0  0  0  0
    0.1398    1.8469   -2.8091 H   0  0  0  0  0  0  0  0  0  0  0  0
   -0.3276   -0.5827   -2.4499 H   0  0  0  0  0  0  0  0  0  0  0  0
   -0.4938    1.4910   -2.0689 N   0  0  0  0  0  0  0  0  0  0  0  0
   -0.7502   -1.2691   -0.0989 H   0  0  0  0  0  0  0  0  0  0  0  0
   -0.9709   -0.2513   -0.4168 C   0  0  0  0  0  0  0  0  0  0  0  0
   -0.3720    1.8636    0.5622 O   0  0  0  0  0  0  0  0  0  0  0  0
   -0.7432    0.6898    0.7816 C   0  0  0  0  0  0  0  0  0  0  0  0
   -0.4141    2.0620   -1.2006 H   0  0  0  0  0  0  0  0  0  0  0  0
   -0.9679    0.2301    1.9295 O   0  0  0  0  0  0  0  0  0  0  0  0
   -1.4768    1.5264   -2.3974 H   0  0  0  0  0  0  0  0  0  0  0  0
   -2.0366   -0.2018   -0.6515 H   0  0  0  0  0  0  0  0  0  0  0  0
   -2.2764   -2.1725    2.2650 O   0  0  0  0  0  0  0  0  0  0  0  0
   -1.8421   -1.2971    2.2319 H   0  0  0  0  0  0  0  0  0  0  0  0
   -1.7878   -2.7163    1.6196 H   0  0  0  0  0  0  0  0  0  0  0  0
   -0.3725    2.2485    3.7183 O   0  0  0  0  0  0  0  0  0  0  0  0
   -0.1412    2.9390    3.0871 H   0  0  0  0  0  0  0  0  0  0  0  0
   -0.6091    1.4757    3.1624 H   0  0  0  0  0  0  0  0  0  0  0  0
   -3.1967    1.5769   -2.8190 O   0  0  0  0  0  0  0  0  0  0  0  0
   -3.5033    1.3848   -3.7108 H   0  0  0  0  0  0  0  0  0  0  0  0
   -3.7307    2.2991   -2.4776 H   0  0  0  0  0  0  0  0  0  0  0  0
   -2.3027   -3.4343    4.7438 O   0  0  0  0  0  0  0  0  0  0  0  0
   -2.3671   -3.0128    3.8642 H   0  0  0  0  0  0  0  0  0  0  0  0
   -2.0930   -2.7221    5.3548 H   0  0  0  0  0  0  0  0  0  0  0  0
   -0.4156   -2.1601   -4.0692 O   0  0  0  0  0  0  0  0  0  0  0  0
   -1.2341   -2.6198   -4.2777 H   0  0  0  0  0  0  0  0  0  0  0  0
    0.2932   -2.8078   -4.1164 H   0  0  0  0  0  0  0  0  0  0  0  0
    1.2880    2.4552   -3.9843 O   0  0  0  0  0  0  0  0  0  0  0  0
    2.0409    2.9758   -3.6910 H   0  0  0  0  0  0  0  0  0  0  0  0
    1.5654    1.9364   -4.7451 H   0  0  0  0  0  0  0  0  0  0  0  0
   -0.7585   -3.7140    0.4604 O   0  0  0  0  0  0  0  0  0  0  0  0
   -1.2717   -4.4116    0.0380 H   0  0  0  0  0  0  0  0  0  0  0  0
   -0.0458   -4.1430    0.9449 H   0  0  0  0  0  0  0  0  0  0  0  0
  1  2  1  0  0  0  0
  2  4  1  0  0  0  0
  2  5  1  0  0  0  0
  3  5  1  0  0  0  0
  2  7  1  0  0  0  0
  6  7  1  0  0  0  0
  7  9  1  0  0  0  0
  8  9  4  0  0  0  0
  5 10  1  0  0  0  0
  9 11  4  0  0  0  0
  5 12  1  0  0  0  0
  7 13  1  0  0  0  0
 14 15  1  0  0  0  0
 14 16  1  0  0  0  0
 17 18  1  0  0  0  0
 17 19  1  0  0  0  0
 20 21  1  0  0  0  0
 20 22  1  0  0  0  0
 23 24  1  0  0  0  0
 23 25  1  0  0  0  0
 26 27  1  0  0  0  0
 26 28  1  0  0  0  0
 29 30  1  0  0  0  0
 29 31  1  0  0  0  0
 32 33  1  0  0  0  0
 32 34  1  0  0  0  0
M  END
