
 OpenBabel05072518183D

 16 15  0  0  0  0  0  0  0  0999 V2000
    1.2814   -0.0704    0.3835 N   0  0  0  0  0  0  0  0  0  0  0  0
    2.7335   -0.0258    0.2149 C   0  0  0  0  0  0  0  0  0  0  0  0
    3.1074    0.4163   -1.2062 C   0  0  0  0  0  0  0  0  0  0  0  0
    4.6308    0.4639   -1.3857 C   0  0  0  0  0  0  0  0  0  0  0  0
    5.0382    0.8943   -2.7699 C   0  0  0  0  0  0  0  0  0  0  0  0
    4.1182    1.1931   -3.7093 O   0  0  0  0  0  0  0  0  0  0  0  0
    6.2236    0.9747   -3.0483 O   0  0  0  0  0  0  0  0  0  0  0  0
    0.8712    0.8782    0.2227 H   0  0  0  0  0  0  0  0  0  0  0  0
    0.8621   -0.7545   -0.2876 H   0  0  0  0  0  0  0  0  0  0  0  0
    3.1562   -1.0359    0.4136 H   0  0  0  0  0  0  0  0  0  0  0  0
    3.1658    0.6871    0.9521 H   0  0  0  0  0  0  0  0  0  0  0  0
    2.6825    1.4265   -1.3969 H   0  0  0  0  0  0  0  0  0  0  0  0
    2.6729   -0.3012   -1.9369 H   0  0  0  0  0  0  0  0  0  0  0  0
    5.0541   -0.5457   -1.1922 H   0  0  0  0  0  0  0  0  0  0  0  0
    5.0637    1.1793   -0.6530 H   0  0  0  0  0  0  0  0  0  0  0  0
    1.0590   -0.3741    1.3590 H   0  0  0  0  0  0  0  0  0  0  0  0
  1  2  1  0  0  0  0
  1  8  1  0  0  0  0
  1  9  1  0  0  0  0
  2  3  1  0  0  0  0
  2 10  1  0  0  0  0
  2 11  1  0  0  0  0
  3  4  1  0  0  0  0
  3 12  1  0  0  0  0
  3 13  1  0  0  0  0
  4  5  1  0  0  0  0
  4 14  1  0  0  0  0
  4 15  1  0  0  0  0
  5  6  1  0  0  0  0
  5  7  2  0  0  0  0
 16  1  1  0  0  0  0
M  END
