
 OpenBabel05082512523D

 16 15  0  0  0  0  0  0  0  0999 V2000
    1.2829   -0.0988    0.3713 N   0  0  0  0  0  0  0  0  0  0  0  0
    2.7355   -0.0338    0.2140 C   0  0  0  0  0  0  0  0  0  0  0  0
    3.1141    0.4351   -1.1972 C   0  0  0  0  0  0  0  0  0  0  0  0
    4.6364    0.5055   -1.3636 C   0  0  0  0  0  0  0  0  0  0  0  0
    5.0073    0.9697   -2.7426 C   0  0  0  0  0  0  0  0  0  0  0  0
    5.7186    2.1017   -2.9047 O   0  0  0  0  0  0  0  0  0  0  0  0
    4.6764    0.3197   -3.7217 O   0  0  0  0  0  0  0  0  0  0  0  0
    0.8622    0.8471    0.2223 H   0  0  0  0  0  0  0  0  0  0  0  0
    0.8769   -0.7775   -0.3133 H   0  0  0  0  0  0  0  0  0  0  0  0
    3.1694   -1.0417    0.3998 H   0  0  0  0  0  0  0  0  0  0  0  0
    3.1537    0.6726    0.9655 H   0  0  0  0  0  0  0  0  0  0  0  0
    2.6786    1.4428   -1.3773 H   0  0  0  0  0  0  0  0  0  0  0  0
    2.6920   -0.2753   -1.9419 H   0  0  0  0  0  0  0  0  0  0  0  0
    5.0834   -0.4974   -1.1901 H   0  0  0  0  0  0  0  0  0  0  0  0
    5.0548    1.2135   -0.6151 H   0  0  0  0  0  0  0  0  0  0  0  0
    1.0574   -0.4204    1.3403 H   0  0  0  0  0  0  0  0  0  0  0  0
  1  2  1  0  0  0  0
  1  8  1  0  0  0  0
  1  9  1  0  0  0  0
  2  3  1  0  0  0  0
  2 10  1  0  0  0  0
  2 11  1  0  0  0  0
  3  4  1  0  0  0  0
  3 12  1  0  0  0  0
  3 13  1  0  0  0  0
  4  5  1  0  0  0  0
  4 14  1  0  0  0  0
  4 15  1  0  0  0  0
  5  6  1  0  0  0  0
  5  7  2  0  0  0  0
 16  1  1  0  0  0  0
M  END
