
 OpenBabel05082512573D

 16 15  0  0  0  0  0  0  0  0999 V2000
    1.0789    0.0962    0.9005 N   0  0  0  0  0  0  0  0  0  0  0  0
    1.6405   -0.2495   -0.4053 C   0  0  0  0  0  0  0  0  0  0  0  0
    1.2509    0.7984   -1.4615 C   0  0  0  0  0  0  0  0  0  0  0  0
    1.7374    0.4632   -2.8819 C   0  0  0  0  0  0  0  0  0  0  0  0
    3.2354    0.4809   -3.0333 C   0  0  0  0  0  0  0  0  0  0  0  0
    3.8130    1.3701   -3.8638 O   0  0  0  0  0  0  0  0  0  0  0  0
    3.9339   -0.3254   -2.4411 O   0  0  0  0  0  0  0  0  0  0  0  0
    1.4476    1.0227    1.2163 H   0  0  0  0  0  0  0  0  0  0  0  0
    0.0349    0.1317    0.8465 H   0  0  0  0  0  0  0  0  0  0  0  0
    1.2550   -1.2462   -0.7154 H   0  0  0  0  0  0  0  0  0  0  0  0
    2.7440   -0.3122   -0.3090 H   0  0  0  0  0  0  0  0  0  0  0  0
    1.6366    1.7982   -1.1642 H   0  0  0  0  0  0  0  0  0  0  0  0
    0.1407    0.8529   -1.4958 H   0  0  0  0  0  0  0  0  0  0  0  0
    1.3428   -0.5271   -3.1964 H   0  0  0  0  0  0  0  0  0  0  0  0
    1.3144    1.2306   -3.5662 H   0  0  0  0  0  0  0  0  0  0  0  0
    1.3558   -0.6331    1.5968 H   0  0  0  0  0  0  0  0  0  0  0  0
  1  2  1  0  0  0  0
  1  8  1  0  0  0  0
  1  9  1  0  0  0  0
  2  3  1  0  0  0  0
  2 10  1  0  0  0  0
  2 11  1  0  0  0  0
  3  4  1  0  0  0  0
  3 12  1  0  0  0  0
  3 13  1  0  0  0  0
  4  5  1  0  0  0  0
  4 14  1  0  0  0  0
  4 15  1  0  0  0  0
  5  6  1  0  0  0  0
  5  7  2  0  0  0  0
 16  1  1  0  0  0  0
M  END
