16

N          0.18740        1.06590        0.44330
C          1.07850        1.91900       -0.34400
C          0.50280        2.31020       -1.72110
C          0.34610        1.16150       -2.73400
C         -0.73620        0.18310       -2.38020
O         -0.44210       -1.12230       -2.22650
O         -1.88990        0.56120       -2.25170
H          0.58650        0.96060        1.40410
H         -0.76020        1.50160        0.51970
H          1.24500        2.86230        0.22270
H          2.06570        1.42190       -0.46960
H          1.22470        3.02870       -2.16750
H         -0.46350        2.84580       -1.59590
H          1.31900        0.63650       -2.85030
H          0.07640        1.60370       -3.71750
H          0.12070        0.11230        0.02810
