16

N         -0.01980        0.94960        0.70020
C          0.69240        1.62210       -0.38420
C         -0.15880        1.84920       -1.65360
C         -0.59780        0.57090       -2.39470
C         -1.76540       -0.16740       -1.79010
O         -2.43210        0.31420       -0.72360
O         -2.15410       -1.19760       -2.31640
H          0.60340        0.91500        1.53910
H         -0.88300        1.48300        0.95180
H          1.02670        2.61930       -0.02060
H          1.60260        1.03810       -0.64640
H          0.50680        2.40380       -2.35110
H         -1.03450        2.50190       -1.44700
H          0.27880       -0.10500       -2.49550
H         -0.92250        0.86210       -3.41730
H         -0.24600       -0.03440        0.43460
