
 OpenBabel05082513023D

 16 15  0  0  0  0  0  0  0  0999 V2000
   -0.0198    0.9496    0.7002 N   0  0  0  0  0  0  0  0  0  0  0  0
    0.6924    1.6221   -0.3842 C   0  0  0  0  0  0  0  0  0  0  0  0
   -0.1588    1.8492   -1.6536 C   0  0  0  0  0  0  0  0  0  0  0  0
   -0.5978    0.5709   -2.3947 C   0  0  0  0  0  0  0  0  0  0  0  0
   -1.7654   -0.1674   -1.7901 C   0  0  0  0  0  0  0  0  0  0  0  0
   -2.4321    0.3142   -0.7236 O   0  0  0  0  0  0  0  0  0  0  0  0
   -2.1541   -1.1976   -2.3164 O   0  0  0  0  0  0  0  0  0  0  0  0
    0.6034    0.9150    1.5391 H   0  0  0  0  0  0  0  0  0  0  0  0
   -0.8830    1.4830    0.9518 H   0  0  0  0  0  0  0  0  0  0  0  0
    1.0267    2.6193   -0.0206 H   0  0  0  0  0  0  0  0  0  0  0  0
    1.6026    1.0381   -0.6464 H   0  0  0  0  0  0  0  0  0  0  0  0
    0.5068    2.4038   -2.3511 H   0  0  0  0  0  0  0  0  0  0  0  0
   -1.0345    2.5019   -1.4470 H   0  0  0  0  0  0  0  0  0  0  0  0
    0.2788   -0.1050   -2.4955 H   0  0  0  0  0  0  0  0  0  0  0  0
   -0.9225    0.8621   -3.4173 H   0  0  0  0  0  0  0  0  0  0  0  0
   -0.2460   -0.0344    0.4346 H   0  0  0  0  0  0  0  0  0  0  0  0
  1  2  1  0  0  0  0
  1  8  1  0  0  0  0
  1  9  1  0  0  0  0
  2  3  1  0  0  0  0
  2 10  1  0  0  0  0
  2 11  1  0  0  0  0
  3  4  1  0  0  0  0
  3 12  1  0  0  0  0
  3 13  1  0  0  0  0
  4  5  1  0  0  0  0
  4 14  1  0  0  0  0
  4 15  1  0  0  0  0
  5  6  1  0  0  0  0
  5  7  2  0  0  0  0
 16  1  1  0  0  0  0
M  END
