 xtb: 6.7.1 (edcfbbe)
          06112501393D

 58 43  0     0  0            999 V2000
   -0.6785    0.7921   -0.3511 N   0  0  0  0  0  0  0  0  0  0  0  0
    0.4132    1.7455   -0.5915 C   0  0  0  0  0  0  0  0  0  0  0  0
    0.1426    2.6345   -1.8037 C   0  0  0  0  0  0  0  0  0  0  0  0
    0.4669    1.9968   -3.1656 C   0  0  0  0  0  0  0  0  0  0  0  0
   -0.6155    1.0858   -3.7311 C   0  0  0  0  0  0  0  0  0  0  0  0
   -1.1062    1.3562   -4.8506 O   0  0  0  0  0  0  0  0  0  0  0  0
   -0.9735    0.0803   -3.0644 O   0  0  0  0  0  0  0  0  0  0  0  0
   -0.4696    0.2260    0.5077 H   0  0  0  0  0  0  0  0  0  0  0  0
   -1.5880    1.2917   -0.2186 H   0  0  0  0  0  0  0  0  0  0  0  0
    0.5223    2.3692    0.2966 H   0  0  0  0  0  0  0  0  0  0  0  0
    1.3423    1.1902   -0.7312 H   0  0  0  0  0  0  0  0  0  0  0  0
    0.7663    3.5240   -1.7152 H   0  0  0  0  0  0  0  0  0  0  0  0
   -0.8985    2.9634   -1.7882 H   0  0  0  0  0  0  0  0  0  0  0  0
    1.3828    1.4061   -3.0861 H   0  0  0  0  0  0  0  0  0  0  0  0
    0.6304    2.7792   -3.9093 H   0  0  0  0  0  0  0  0  0  0  0  0
   -0.7828    0.1825   -1.1712 H   0  0  0  0  0  0  0  0  0  0  0  0
    0.1885   -0.5902    1.8341 O   0  0  0  0  0  0  0  0  0  0  0  0
    0.9229   -0.9648    1.3088 H   0  0  0  0  0  0  0  0  0  0  0  0
   -0.3985   -1.3396    2.0495 H   0  0  0  0  0  0  0  0  0  0  0  0
   -3.5873   -0.1032   -2.1822 O   0  0  0  0  0  0  0  0  0  0  0  0
   -4.1404   -0.0601   -2.9691 H   0  0  0  0  0  0  0  0  0  0  0  0
   -2.6747   -0.0192   -2.5164 H   0  0  0  0  0  0  0  0  0  0  0  0
   -3.6985    0.4103   -5.0874 O   0  0  0  0  0  0  0  0  0  0  0  0
   -4.1646    0.8965   -5.7721 H   0  0  0  0  0  0  0  0  0  0  0  0
   -2.7983    0.7936   -5.0432 H   0  0  0  0  0  0  0  0  0  0  0  0
   -3.2201    1.8476   -0.2151 O   0  0  0  0  0  0  0  0  0  0  0  0
   -3.5580    1.2564   -0.9117 H   0  0  0  0  0  0  0  0  0  0  0  0
   -3.4039    1.3735    0.6138 H   0  0  0  0  0  0  0  0  0  0  0  0
   -0.1999   -1.4301   -2.3657 H   0  0  0  0  0  0  0  0  0  0  0  0
    0.3406   -2.8747   -2.4484 H   0  0  0  0  0  0  0  0  0  0  0  0
    0.0027   -2.2068   -1.8211 O   0  0  0  0  0  0  0  0  0  0  0  0
    1.2533   -1.8304   -0.6694 H   0  0  0  0  0  0  0  0  0  0  0  0
    2.5369   -2.3154    0.0640 H   0  0  0  0  0  0  0  0  0  0  0  0
    1.9318   -1.5744   -0.0067 O   0  0  0  0  0  0  0  0  0  0  0  0
    1.0308   -3.8555   -3.7461 O   0  0  0  0  0  0  0  0  0  0  0  0
    0.8640   -4.7998   -3.8132 H   0  0  0  0  0  0  0  0  0  0  0  0
    0.6976   -3.4659   -4.5817 H   0  0  0  0  0  0  0  0  0  0  0  0
   -1.5328   -2.7295    2.1383 O   0  0  0  0  0  0  0  0  0  0  0  0
   -1.2706   -3.6450    2.2578 H   0  0  0  0  0  0  0  0  0  0  0  0
   -1.9277   -2.6657    1.2517 H   0  0  0  0  0  0  0  0  0  0  0  0
   -1.5739   -2.1662   -0.9073 H   0  0  0  0  0  0  0  0  0  0  0  0
   -2.4104   -2.0175   -0.4275 O   0  0  0  0  0  0  0  0  0  0  0  0
   -2.9923   -1.5665   -1.0573 H   0  0  0  0  0  0  0  0  0  0  0  0
   -1.0432   -2.6366   -5.4698 H   0  0  0  0  0  0  0  0  0  0  0  0
   -0.1982   -2.8063   -5.9411 O   0  0  0  0  0  0  0  0  0  0  0  0
    0.0280   -1.9564   -6.3510 H   0  0  0  0  0  0  0  0  0  0  0  0
   -2.3091   -1.9730   -4.4416 O   0  0  0  0  0  0  0  0  0  0  0  0
   -3.0174   -1.4706   -4.8670 H   0  0  0  0  0  0  0  0  0  0  0  0
   -1.7908   -1.2968   -3.9642 H   0  0  0  0  0  0  0  0  0  0  0  0
    0.7501    2.0775    2.6209 O   0  0  0  0  0  0  0  0  0  0  0  0
    0.6179    1.1239    2.4822 H   0  0  0  0  0  0  0  0  0  0  0  0
    0.1879    2.3205    3.3608 H   0  0  0  0  0  0  0  0  0  0  0  0
   -2.8855   -0.8112    0.9119 H   0  0  0  0  0  0  0  0  0  0  0  0
   -2.8362   -0.6144    2.4353 H   0  0  0  0  0  0  0  0  0  0  0  0
   -3.1139   -0.1850    1.6224 O   0  0  0  0  0  0  0  0  0  0  0  0
   -0.3587    0.1587   -7.7833 H   0  0  0  0  0  0  0  0  0  0  0  0
   -0.4277    0.4369   -6.2618 H   0  0  0  0  0  0  0  0  0  0  0  0
   -0.0322   -0.1471   -6.9313 O   0  0  0  0  0  0  0  0  0  0  0  0
  1  2  1  0  0  0  0
  2  3  1  0  0  0  0
  3  4  1  0  0  0  0
  4  5  1  0  0  0  0
  5  6  4  0  0  0  0
  5  7  4  0  0  0  0
  1  8  1  0  0  0  0
  1  9  1  0  0  0  0
  2 10  1  0  0  0  0
  2 11  1  0  0  0  0
  3 12  1  0  0  0  0
  3 13  1  0  0  0  0
  4 14  1  0  0  0  0
  4 15  1  0  0  0  0
  1 16  1  0  0  0  0
 17 18  1  0  0  0  0
 17 19  1  0  0  0  0
 20 21  1  0  0  0  0
 20 22  1  0  0  0  0
 23 24  1  0  0  0  0
 23 25  1  0  0  0  0
 26 27  1  0  0  0  0
 26 28  1  0  0  0  0
 29 31  1  0  0  0  0
 30 31  1  0  0  0  0
 32 34  1  0  0  0  0
 33 34  1  0  0  0  0
 35 36  1  0  0  0  0
 35 37  1  0  0  0  0
 38 39  1  0  0  0  0
 38 40  1  0  0  0  0
 41 42  1  0  0  0  0
 42 43  1  0  0  0  0
 44 45  1  0  0  0  0
 45 46  1  0  0  0  0
 47 48  1  0  0  0  0
 47 49  1  0  0  0  0
 50 51  1  0  0  0  0
 50 52  1  0  0  0  0
 53 55  1  0  0  0  0
 54 55  1  0  0  0  0
 56 58  1  0  0  0  0
 57 58  1  0  0  0  0
M  END
