58
Coordinates from ORCA-job 04_Aminobutyric-acid_zwitterion
  N           1.06986294834206      1.20470635884485      0.29243901484916
  C           0.09008958514807      1.84257524925129     -0.63665600967826
  C           0.22005693759637      1.34424577622323     -2.06985622613562
  C           1.65353514808472      1.25369914033798     -2.63223871569762
  C           2.47745764524561      2.49813398817299     -2.35594779627628
  O           2.51665860833259      3.41927724072232     -3.20587559810399
  O           3.06378895084475      2.55757371801012     -1.22864403341892
  H           0.81112022540619      1.37699711217429      1.26241853356111
  H           1.14145685552904      0.16736775774809      0.18306811138137
  H          -0.90783838935730      1.65713398575380     -0.24581059680328
  H           0.26611447473595      2.91687167138100     -0.57687978151996
  H          -0.36541344692275      2.03024664452110     -2.68398479921568
  H          -0.23511291981418      0.35618246740368     -2.16038543371388
  H           2.16401481778644      0.39326312361799     -2.20134924666164
  H           1.56882822976183      1.09468655055986     -3.70528957632126
  H           1.99544043848160      1.61043777969597      0.09958666289985
  O          -0.89755041892647      0.14879133412745      2.19494491690233
  H          -1.62391606215418      0.60882953237577      2.63559591132727
  H          -1.31723698035565     -0.52527006125420      1.64423068144291
  O           2.94587764879641     -1.84922120620077      2.38202201597370
  H           3.71246700468146     -1.28531164441723      2.54166227660856
  H           2.26597769097499     -1.56422832964006      3.03726566493325
  O           4.79284407961485      0.48781053454923     -0.47645034074154
  H           5.64138340364177      0.97624251202619     -0.51082240594660
  H           4.12910844149662      1.15623330825063     -0.74096083039024
  O           6.92357394259055      2.30079056958526     -0.44879221596780
  H           7.41348346082023      2.41651652164956     -1.27291338519176
  H           6.31189170997959      3.06694442311375     -0.40369085588208
  O           0.84865113665016      3.61715200514546     -5.34026349340651
  H           0.98734987623557      2.94417867368716     -6.01611061009155
  H           1.50373028885924      3.43709301730625     -4.62511781548486
  O           0.83326040427729     -1.14696503212016      3.96911539234582
  H           0.92209345721421     -0.60536685722270      4.76216696016873
  H           0.22652119387241     -0.66449122322815      3.37035117979662
  O           1.60639484994226     -1.52250341868127     -0.01764205507203
  H           2.25424202536239     -1.65586785755071     -0.74162555503117
  H           2.13835352115448     -1.65305186589061      0.79884966772589
  O           3.19799174342248      0.12615939502841     -5.99433077711794
  H           2.82235497532416     -0.48704136636899     -5.34947619268261
  H           2.65192335170900      0.91773329188780     -5.90655231292836
  O          -0.76504821440671      0.75576704132462     -5.67937500749414
  H           0.10200714145722      0.33243861618217     -5.64835004192991
  H          -0.65358127089799      1.57827264664832     -5.18466869872759
  O           3.69455759256456      3.23056152662412      2.26033029592425
  H           4.12831832177734      3.66152350317612      1.49927564031404
  H           3.69569574972848      2.29056142941715      2.04392575092224
  O           4.86500016474338      4.15340751300214     -0.14786206307467
  H           4.15899430462362      3.71159407136548     -0.69029360981762
  H           4.92246697297011      5.06953751308887     -0.44599634956280
  O          -0.98039240032966      4.73544392390182     -3.43975955464450
  H          -0.52490675931438      4.29374817789390     -4.17718620082545
  H          -0.25577654068606      5.07210182210198     -2.88138917232706
  O           3.81885758405023     -1.69823351406423     -1.74847174393926
  H           4.28852926965225     -0.91835616752771     -1.36350804497123
  H           3.71116827794055     -1.49027873934872     -2.68464948270142
  O           1.38681685024203      5.69468096906190     -2.10981644252193
  H           1.88804458353718      4.91763800615520     -2.43768914044782
  H           1.49158751796355      5.68528684042055     -1.15088646460952
