 xtb: 6.7.1 (edcfbbe)
          06092518023D

 37 29  0     0  0            999 V2000
   -0.7649   -0.9555    1.5330 N   0  0  0  0  0  0  0  0  0  0  0  0
    0.1892   -0.8857    0.4093 C   0  0  0  0  0  0  0  0  0  0  0  0
   -0.4539   -0.2052   -0.7935 C   0  0  0  0  0  0  0  0  0  0  0  0
    0.5253   -0.1053   -1.9656 C   0  0  0  0  0  0  0  0  0  0  0  0
   -0.2149    0.4664   -3.1781 C   0  0  0  0  0  0  0  0  0  0  0  0
   -0.1777    1.6948   -3.3830 O   0  0  0  0  0  0  0  0  0  0  0  0
   -0.8658   -0.3444   -3.8954 O   0  0  0  0  0  0  0  0  0  0  0  0
   -1.0063   -0.0167    1.8572 H   0  0  0  0  0  0  0  0  0  0  0  0
   -1.6212   -1.4193    1.2207 H   0  0  0  0  0  0  0  0  0  0  0  0
    0.4819   -1.8987    0.1315 H   0  0  0  0  0  0  0  0  0  0  0  0
    1.0732   -0.3300    0.7186 H   0  0  0  0  0  0  0  0  0  0  0  0
   -0.7930    0.8019   -0.5418 H   0  0  0  0  0  0  0  0  0  0  0  0
   -1.3197   -0.7809   -1.1266 H   0  0  0  0  0  0  0  0  0  0  0  0
    0.9061   -1.0932   -2.2254 H   0  0  0  0  0  0  0  0  0  0  0  0
    1.3537    0.5618   -1.7251 H   0  0  0  0  0  0  0  0  0  0  0  0
   -0.3625   -1.5282    2.3373 H   0  0  0  0  0  0  0  0  0  0  0  0
   -2.7840    1.1340   -5.0930 O   0  0  0  0  0  0  0  0  0  0  0  0
   -2.0666    0.5597   -4.7356 H   0  0  0  0  0  0  0  0  0  0  0  0
   -2.3334    1.9060   -5.4504 H   0  0  0  0  0  0  0  0  0  0  0  0
   -0.5152   -4.5752    1.6315 O   0  0  0  0  0  0  0  0  0  0  0  0
   -0.2587   -4.3346    0.7215 H   0  0  0  0  0  0  0  0  0  0  0  0
   -1.2811   -5.1499    1.5588 H   0  0  0  0  0  0  0  0  0  0  0  0
    0.1606   -2.6190    3.4021 O   0  0  0  0  0  0  0  0  0  0  0  0
   -0.0709   -3.4242    2.8973 H   0  0  0  0  0  0  0  0  0  0  0  0
    1.0944   -2.6873    3.6190 H   0  0  0  0  0  0  0  0  0  0  0  0
    0.1350   -3.8922   -0.9726 O   0  0  0  0  0  0  0  0  0  0  0  0
    0.6430   -4.5184   -1.4948 H   0  0  0  0  0  0  0  0  0  0  0  0
   -0.5186   -3.5011   -1.5786 H   0  0  0  0  0  0  0  0  0  0  0  0
   -1.8081    2.8047   -1.3480 O   0  0  0  0  0  0  0  0  0  0  0  0
   -2.6626    2.4972   -1.7015 H   0  0  0  0  0  0  0  0  0  0  0  0
   -1.1716    2.6276   -2.0592 H   0  0  0  0  0  0  0  0  0  0  0  0
   -1.5985   -2.7384   -2.8130 O   0  0  0  0  0  0  0  0  0  0  0  0
   -1.3011   -1.9117   -3.2455 H   0  0  0  0  0  0  0  0  0  0  0  0
   -2.4283   -2.9795   -3.2330 H   0  0  0  0  0  0  0  0  0  0  0  0
   -4.0482    1.7516   -2.7101 O   0  0  0  0  0  0  0  0  0  0  0  0
   -4.8563    2.2213   -2.9409 H   0  0  0  0  0  0  0  0  0  0  0  0
   -3.6409    1.4844   -3.5584 H   0  0  0  0  0  0  0  0  0  0  0  0
  1  2  1  0  0  0  0
  2  3  1  0  0  0  0
  3  4  1  0  0  0  0
  4  5  1  0  0  0  0
  5  6  2  0  0  0  0
  5  7  4  0  0  0  0
  1  8  1  0  0  0  0
  1  9  1  0  0  0  0
  2 10  1  0  0  0  0
  2 11  1  0  0  0  0
  3 12  1  0  0  0  0
  3 13  1  0  0  0  0
  4 14  1  0  0  0  0
  4 15  1  0  0  0  0
  1 16  1  0  0  0  0
 17 18  1  0  0  0  0
 17 19  1  0  0  0  0
 20 21  1  0  0  0  0
 20 22  1  0  0  0  0
 23 24  1  0  0  0  0
 23 25  1  0  0  0  0
 26 27  1  0  0  0  0
 26 28  1  0  0  0  0
 29 30  1  0  0  0  0
 29 31  1  0  0  0  0
 32 33  1  0  0  0  0
 32 34  1  0  0  0  0
 35 36  1  0  0  0  0
 35 37  1  0  0  0  0
M  END
