 xtb: 6.7.1 (edcfbbe)
          06092518023D

 37 29  0     0  0            999 V2000
   -0.2814   -0.4929    2.2703 N   0  0  0  0  0  0  0  0  0  0  0  0
   -0.7886   -0.3691    0.8901 C   0  0  0  0  0  0  0  0  0  0  0  0
    0.2015    0.3865    0.0104 C   0  0  0  0  0  0  0  0  0  0  0  0
   -0.3211    0.5431   -1.4141 C   0  0  0  0  0  0  0  0  0  0  0  0
   -0.2148   -0.7366   -2.2689 C   0  0  0  0  0  0  0  0  0  0  0  0
    0.6190   -1.6094   -1.9437 O   0  0  0  0  0  0  0  0  0  0  0  0
   -0.9533   -0.8109   -3.2794 O   0  0  0  0  0  0  0  0  0  0  0  0
    0.5873   -1.0881    2.2798 H   0  0  0  0  0  0  0  0  0  0  0  0
   -0.0647    0.4281    2.6539 H   0  0  0  0  0  0  0  0  0  0  0  0
   -1.7462    0.1533    0.8970 H   0  0  0  0  0  0  0  0  0  0  0  0
   -0.9448   -1.3664    0.4794 H   0  0  0  0  0  0  0  0  0  0  0  0
    1.1434   -0.1615   -0.0447 H   0  0  0  0  0  0  0  0  0  0  0  0
    0.3876    1.3792    0.4233 H   0  0  0  0  0  0  0  0  0  0  0  0
   -1.3606    0.8737   -1.4362 H   0  0  0  0  0  0  0  0  0  0  0  0
    0.2685    1.2897   -1.9537 H   0  0  0  0  0  0  0  0  0  0  0  0
   -0.9988   -0.9536    2.8716 H   0  0  0  0  0  0  0  0  0  0  0  0
    0.2074   -3.7196    7.6355 O   0  0  0  0  0  0  0  0  0  0  0  0
    0.6387   -3.1039    8.2360 H   0  0  0  0  0  0  0  0  0  0  0  0
    0.8144   -3.8672    6.9028 H   0  0  0  0  0  0  0  0  0  0  0  0
   -2.2665   -1.6886    3.7705 O   0  0  0  0  0  0  0  0  0  0  0  0
   -2.3273   -2.6479    3.7525 H   0  0  0  0  0  0  0  0  0  0  0  0
   -2.4715   -1.4011    4.6653 H   0  0  0  0  0  0  0  0  0  0  0  0
    4.0212   -0.4239    6.3804 O   0  0  0  0  0  0  0  0  0  0  0  0
    4.5341   -1.1181    5.9549 H   0  0  0  0  0  0  0  0  0  0  0  0
    3.9592    0.3050    5.7549 H   0  0  0  0  0  0  0  0  0  0  0  0
    0.6559   -3.4613    0.0355 O   0  0  0  0  0  0  0  0  0  0  0  0
    0.8096   -4.3208   -0.3651 H   0  0  0  0  0  0  0  0  0  0  0  0
    0.6651   -2.8148   -0.6958 H   0  0  0  0  0  0  0  0  0  0  0  0
   -3.1626    0.7688   -3.4211 O   0  0  0  0  0  0  0  0  0  0  0  0
   -2.3639    0.1972   -3.4116 H   0  0  0  0  0  0  0  0  0  0  0  0
   -3.7100    0.4347   -4.1386 H   0  0  0  0  0  0  0  0  0  0  0  0
    1.8486   -2.1802    2.1261 O   0  0  0  0  0  0  0  0  0  0  0  0
    1.4467   -2.7562    1.4466 H   0  0  0  0  0  0  0  0  0  0  0  0
    2.6991   -1.9025    1.7764 H   0  0  0  0  0  0  0  0  0  0  0  0
    1.9968    1.6025   -6.8483 O   0  0  0  0  0  0  0  0  0  0  0  0
    1.1023    1.9041   -6.6606 H   0  0  0  0  0  0  0  0  0  0  0  0
    2.0636    0.7017   -6.5171 H   0  0  0  0  0  0  0  0  0  0  0  0
  1  2  1  0  0  0  0
  2  3  1  0  0  0  0
  3  4  1  0  0  0  0
  4  5  1  0  0  0  0
  5  6  4  0  0  0  0
  5  7  4  0  0  0  0
  1  8  1  0  0  0  0
  1  9  1  0  0  0  0
  2 10  1  0  0  0  0
  2 11  1  0  0  0  0
  3 12  1  0  0  0  0
  3 13  1  0  0  0  0
  4 14  1  0  0  0  0
  4 15  1  0  0  0  0
  1 16  1  0  0  0  0
 17 18  1  0  0  0  0
 17 19  1  0  0  0  0
 20 21  1  0  0  0  0
 20 22  1  0  0  0  0
 23 24  1  0  0  0  0
 23 25  1  0  0  0  0
 26 27  1  0  0  0  0
 26 28  1  0  0  0  0
 29 30  1  0  0  0  0
 29 31  1  0  0  0  0
 32 33  1  0  0  0  0
 32 34  1  0  0  0  0
 35 36  1  0  0  0  0
 35 37  1  0  0  0  0
M  END
