25

C        0.0007170000     -0.5225580000      0.6780440000                 
C        0.0001550000      0.0939270000      2.0503680000                 
O       -0.0001950000     -0.6301310000      3.0322620000                 
O       -0.0007970000      1.4315590000      2.2164330000                 
C        0.0009890000      0.5253110000     -0.4432600000                 
N       -0.0003010000     -0.1165910000     -1.7566520000                 
H        0.9025930000     -1.1629280000      0.5788880000                 
H       -0.9026400000     -1.1602380000      0.5790170000                 
H       -0.9020020000      1.1674130000     -0.3510370000                 
H        0.9036660000      1.1689490000     -0.3517200000                 
H       -0.8570690000     -0.7055320000     -1.8675230000                 
H        0.8532280000     -0.7100690000     -1.8677950000                 
H        0.0016560000      0.6208870000     -2.4970260000                 
O       -0.7375431995      2.9700772738      3.0466711595                 
H       -0.0447015551      3.3092957536      3.6675169766                 
H       -1.3406405549      3.7420722388      2.9020725289                 
O       -1.4040600521     -0.7771533556      5.0688707699                 
H       -0.4148456225     -0.7442151232      5.0385700258                 
H       -1.6950647748     -0.1535644723      4.3567861078                 
O        1.1346463228      0.2782581003     -3.6552609428                 
H        2.1239463228      0.3062581003     -3.6876609428                 
H        0.8452463228      0.8970581003     -4.3721609428                 
O        1.1961348649     -2.8640295087     -1.5611681813                 
H        2.1854348649     -2.8360295087     -1.5935681813                 
H        0.9067348649     -2.2452295087     -2.2780681813                 
