 xtb: 6.7.1 (edcfbbe)
          06092518073D

 37 29  0     0  0            999 V2000
   -0.1118   -0.8955    1.8915 N   0  0  0  0  0  0  0  0  0  0  0  0
    0.6088    0.3620    1.6252 C   0  0  0  0  0  0  0  0  0  0  0  0
    0.0328    1.0629    0.3977 C   0  0  0  0  0  0  0  0  0  0  0  0
    0.4666    0.4534   -0.9413 C   0  0  0  0  0  0  0  0  0  0  0  0
   -0.3311   -0.7740   -1.4452 C   0  0  0  0  0  0  0  0  0  0  0  0
   -0.5069   -0.8628   -2.6748 O   0  0  0  0  0  0  0  0  0  0  0  0
   -0.7309   -1.6191   -0.6048 O   0  0  0  0  0  0  0  0  0  0  0  0
    0.4499   -1.5655    2.4399 H   0  0  0  0  0  0  0  0  0  0  0  0
   -0.9907   -0.7118    2.4146 H   0  0  0  0  0  0  0  0  0  0  0  0
    0.5201    1.0185    2.4913 H   0  0  0  0  0  0  0  0  0  0  0  0
    1.6636    0.1481    1.4529 H   0  0  0  0  0  0  0  0  0  0  0  0
    0.3645    2.1012    0.4088 H   0  0  0  0  0  0  0  0  0  0  0  0
   -1.0567    1.0596    0.4516 H   0  0  0  0  0  0  0  0  0  0  0  0
    1.5126    0.1372   -0.8963 H   0  0  0  0  0  0  0  0  0  0  0  0
    0.3900    1.1953   -1.7392 H   0  0  0  0  0  0  0  0  0  0  0  0
   -0.3651   -1.3227    0.9593 H   0  0  0  0  0  0  0  0  0  0  0  0
    0.0947    2.7163    3.9502 O   0  0  0  0  0  0  0  0  0  0  0  0
    0.2119    3.6638    4.0547 H   0  0  0  0  0  0  0  0  0  0  0  0
   -0.8691    2.5463    4.0226 H   0  0  0  0  0  0  0  0  0  0  0  0
    1.1343   -2.9556    3.4120 O   0  0  0  0  0  0  0  0  0  0  0  0
    0.7282   -3.7866    3.1468 H   0  0  0  0  0  0  0  0  0  0  0  0
    2.0824   -3.1054    3.4728 H   0  0  0  0  0  0  0  0  0  0  0  0
   -0.2704   -1.3419    5.2850 O   0  0  0  0  0  0  0  0  0  0  0  0
    0.2540   -1.9675    4.7594 H   0  0  0  0  0  0  0  0  0  0  0  0
    0.3134   -0.5704    5.4269 H   0  0  0  0  0  0  0  0  0  0  0  0
   -2.2231   -0.5558    3.6707 O   0  0  0  0  0  0  0  0  0  0  0  0
   -2.9389   -1.1953    3.6970 H   0  0  0  0  0  0  0  0  0  0  0  0
   -1.5681   -0.8365    4.3626 H   0  0  0  0  0  0  0  0  0  0  0  0
   -2.5540    2.1260    4.0820 O   0  0  0  0  0  0  0  0  0  0  0  0
   -2.5007    1.1534    3.9694 H   0  0  0  0  0  0  0  0  0  0  0  0
   -3.1889    2.4391    3.4329 H   0  0  0  0  0  0  0  0  0  0  0  0
    4.0070    0.8650    4.9677 O   0  0  0  0  0  0  0  0  0  0  0  0
    4.1638    1.7537    4.6364 H   0  0  0  0  0  0  0  0  0  0  0  0
    3.0633    0.8319    5.2142 H   0  0  0  0  0  0  0  0  0  0  0  0
    1.2670    0.9314    5.6168 O   0  0  0  0  0  0  0  0  0  0  0  0
    1.0864    1.2852    6.4926 H   0  0  0  0  0  0  0  0  0  0  0  0
    0.8672    1.5655    4.9797 H   0  0  0  0  0  0  0  0  0  0  0  0
  1  2  1  0  0  0  0
  2  3  1  0  0  0  0
  3  4  1  0  0  0  0
  4  5  1  0  0  0  0
  5  6  2  0  0  0  0
  5  7  4  0  0  0  0
  1  8  1  0  0  0  0
  1  9  1  0  0  0  0
  2 10  1  0  0  0  0
  2 11  1  0  0  0  0
  3 12  1  0  0  0  0
  3 13  1  0  0  0  0
  4 14  1  0  0  0  0
  4 15  1  0  0  0  0
  1 16  1  0  0  0  0
 17 18  1  0  0  0  0
 17 19  1  0  0  0  0
 20 21  1  0  0  0  0
 20 22  1  0  0  0  0
 23 24  1  0  0  0  0
 23 25  1  0  0  0  0
 26 27  1  0  0  0  0
 26 28  1  0  0  0  0
 29 30  1  0  0  0  0
 29 31  1  0  0  0  0
 32 33  1  0  0  0  0
 32 34  1  0  0  0  0
 35 36  1  0  0  0  0
 35 37  1  0  0  0  0
M  END
