22

N        1.5571700000     -0.0890400000      0.4834600000                 
C        2.9667100000      0.1062600000      0.1492000000                 
C        3.1196700000      0.7386700000     -1.2395200000                 
C        4.6004700000      0.9465100000     -1.5872500000                 
C        4.8081300000      1.5935200000     -2.9308100000                 
O        3.8632600000      1.9115800000     -3.6363800000                 
O        6.0614200000      1.8313000000     -3.3599900000                 
H        1.0565300000      0.8291600000      0.4795200000                 
H        1.1123000000     -0.7398200000     -0.2036200000                 
H        3.4877700000     -0.8756500000      0.1717300000                 
H        3.4343300000      0.7692700000      0.9103000000                 
H        2.5984800000      1.7195400000     -1.2480600000                 
H        2.6507800000      0.0763400000     -2.0000900000                 
H        5.1140100000     -0.0377300000     -1.5883300000                 
H        5.0720800000      1.5925800000     -0.8163500000                 
H        1.4874300000     -0.5072200000      1.4386100000                 
O       -1.6907158546      1.5320126317      2.1860166541                 
H       -0.7014158546      1.5600126317      2.1536166541                 
H       -1.9801158546      2.1508126317      1.4691166541                 
O        4.2275946113      4.6404801918     -5.1305552371                 
H        4.1963426220      3.6767403071     -4.9052177173                 
H        4.8347942778      5.0338767411     -4.4544197994                 
