 xtb: 6.7.1 (edcfbbe)
          06112501053D

 22 19  0     0  0            999 V2000
    1.4969   -0.5353    0.8307 N   0  0  0  0  0  0  0  0  0  0  0  0
    2.8743   -0.1339    0.4666 C   0  0  0  0  0  0  0  0  0  0  0  0
    2.9065    0.4259   -0.9506 C   0  0  0  0  0  0  0  0  0  0  0  0
    4.3135    0.8337   -1.3659 C   0  0  0  0  0  0  0  0  0  0  0  0
    4.4033    1.2290   -2.8681 C   0  0  0  0  0  0  0  0  0  0  0  0
    3.4990    0.8332   -3.6320 O   0  0  0  0  0  0  0  0  0  0  0  0
    5.3997    1.9089   -3.2001 O   0  0  0  0  0  0  0  0  0  0  0  0
    0.8548    0.2888    0.7620 H   0  0  0  0  0  0  0  0  0  0  0  0
    1.1591   -1.2466    0.1759 H   0  0  0  0  0  0  0  0  0  0  0  0
    3.5382   -0.9965    0.5310 H   0  0  0  0  0  0  0  0  0  0  0  0
    3.2229    0.6281    1.1630 H   0  0  0  0  0  0  0  0  0  0  0  0
    2.2595    1.3001   -1.0323 H   0  0  0  0  0  0  0  0  0  0  0  0
    2.5582   -0.3101   -1.6780 H   0  0  0  0  0  0  0  0  0  0  0  0
    5.0157    0.0049   -1.2406 H   0  0  0  0  0  0  0  0  0  0  0  0
    4.6897    1.6803   -0.7898 H   0  0  0  0  0  0  0  0  0  0  0  0
    1.4590   -0.9042    1.7851 H   0  0  0  0  0  0  0  0  0  0  0  0
   -0.2544    1.5789    0.6375 O   0  0  0  0  0  0  0  0  0  0  0  0
   -0.2530    2.4005    1.1356 H   0  0  0  0  0  0  0  0  0  0  0  0
   -0.9700    1.6212   -0.0021 H   0  0  0  0  0  0  0  0  0  0  0  0
    5.4756    6.8729   -4.5904 O   0  0  0  0  0  0  0  0  0  0  0  0
    6.2184    6.4014   -4.2004 H   0  0  0  0  0  0  0  0  0  0  0  0
    4.9159    6.2096   -5.0058 H   0  0  0  0  0  0  0  0  0  0  0  0
  1  2  1  0  0  0  0
  2  3  1  0  0  0  0
  3  4  1  0  0  0  0
  4  5  1  0  0  0  0
  5  6  4  0  0  0  0
  5  7  4  0  0  0  0
  1  8  1  0  0  0  0
  1  9  1  0  0  0  0
  2 10  1  0  0  0  0
  2 11  1  0  0  0  0
  3 12  1  0  0  0  0
  3 13  1  0  0  0  0
  4 14  1  0  0  0  0
  4 15  1  0  0  0  0
  1 16  1  0  0  0  0
 17 18  1  0  0  0  0
 17 19  1  0  0  0  0
 20 21  1  0  0  0  0
 20 22  1  0  0  0  0
M  END
