 xtb: 6.7.1 (edcfbbe)
          06092518013D

 37 29  0     0  0            999 V2000
   -0.8790    0.6631    2.4775 N   0  0  0  0  0  0  0  0  0  0  0  0
   -0.5000   -0.2055    1.3463 C   0  0  0  0  0  0  0  0  0  0  0  0
    0.2752    0.6063    0.3143 C   0  0  0  0  0  0  0  0  0  0  0  0
    0.4503   -0.1387   -1.0090 C   0  0  0  0  0  0  0  0  0  0  0  0
    0.4587    0.8227   -2.2171 C   0  0  0  0  0  0  0  0  0  0  0  0
   -0.4553    1.6938   -2.2524 O   0  0  0  0  0  0  0  0  0  0  0  0
    1.3270    0.6731   -3.0931 O   0  0  0  0  0  0  0  0  0  0  0  0
   -0.0347    1.0104    2.9833 H   0  0  0  0  0  0  0  0  0  0  0  0
   -1.4041    1.4843    2.1059 H   0  0  0  0  0  0  0  0  0  0  0  0
   -1.4052   -0.5929    0.8761 H   0  0  0  0  0  0  0  0  0  0  0  0
    0.1010   -1.0412    1.7032 H   0  0  0  0  0  0  0  0  0  0  0  0
    1.2524    0.8994    0.6954 H   0  0  0  0  0  0  0  0  0  0  0  0
   -0.2835    1.5172    0.1033 H   0  0  0  0  0  0  0  0  0  0  0  0
   -0.3972   -0.8078   -1.1830 H   0  0  0  0  0  0  0  0  0  0  0  0
    1.3661   -0.7287   -1.0468 H   0  0  0  0  0  0  0  0  0  0  0  0
   -1.4755    0.1665    3.1406 H   0  0  0  0  0  0  0  0  0  0  0  0
   -0.3811    3.7769    3.8636 O   0  0  0  0  0  0  0  0  0  0  0  0
    0.0141    4.0540    3.0035 H   0  0  0  0  0  0  0  0  0  0  0  0
   -0.4500    4.5743    4.3922 H   0  0  0  0  0  0  0  0  0  0  0  0
   -0.8212    3.9480   -0.5291 O   0  0  0  0  0  0  0  0  0  0  0  0
   -0.6385    3.3111   -1.2365 H   0  0  0  0  0  0  0  0  0  0  0  0
   -1.4882    3.5206    0.0478 H   0  0  0  0  0  0  0  0  0  0  0  0
   -2.5267    2.4531    1.1137 O   0  0  0  0  0  0  0  0  0  0  0  0
   -3.3723    2.7896    1.4220 H   0  0  0  0  0  0  0  0  0  0  0  0
   -2.7106    1.8652    0.3500 H   0  0  0  0  0  0  0  0  0  0  0  0
    0.9044    4.3909    1.5894 O   0  0  0  0  0  0  0  0  0  0  0  0
    1.5657    3.6758    1.5289 H   0  0  0  0  0  0  0  0  0  0  0  0
    0.3639    4.3262    0.7807 H   0  0  0  0  0  0  0  0  0  0  0  0
    1.1718    1.6240    4.0823 O   0  0  0  0  0  0  0  0  0  0  0  0
    1.3373    1.3209    4.9785 H   0  0  0  0  0  0  0  0  0  0  0  0
    0.6574    2.4631    4.1439 H   0  0  0  0  0  0  0  0  0  0  0  0
   -2.8053    0.9639   -1.1329 O   0  0  0  0  0  0  0  0  0  0  0  0
   -1.9487    1.2065   -1.5528 H   0  0  0  0  0  0  0  0  0  0  0  0
   -3.4801    1.1323   -1.7955 H   0  0  0  0  0  0  0  0  0  0  0  0
    2.7008    2.2673    1.8791 O   0  0  0  0  0  0  0  0  0  0  0  0
    3.6261    2.4485    2.0583 H   0  0  0  0  0  0  0  0  0  0  0  0
    2.2968    1.9924    2.7275 H   0  0  0  0  0  0  0  0  0  0  0  0
  1  2  1  0  0  0  0
  2  3  1  0  0  0  0
  3  4  1  0  0  0  0
  4  5  1  0  0  0  0
  5  6  4  0  0  0  0
  5  7  2  0  0  0  0
  1  8  1  0  0  0  0
  1  9  1  0  0  0  0
  2 10  1  0  0  0  0
  2 11  1  0  0  0  0
  3 12  1  0  0  0  0
  3 13  1  0  0  0  0
  4 14  1  0  0  0  0
  4 15  1  0  0  0  0
  1 16  1  0  0  0  0
 17 18  1  0  0  0  0
 17 19  1  0  0  0  0
 20 21  1  0  0  0  0
 20 22  1  0  0  0  0
 23 24  1  0  0  0  0
 23 25  1  0  0  0  0
 26 27  1  0  0  0  0
 26 28  1  0  0  0  0
 29 30  1  0  0  0  0
 29 31  1  0  0  0  0
 32 33  1  0  0  0  0
 32 34  1  0  0  0  0
 35 36  1  0  0  0  0
 35 37  1  0  0  0  0
M  END
