 xtb: 6.7.1 (edcfbbe)
          06092518073D

 37 29  0     0  0            999 V2000
    0.3728   -0.6450    1.7313 N   0  0  0  0  0  0  0  0  0  0  0  0
    0.0609    0.5941    0.9862 C   0  0  0  0  0  0  0  0  0  0  0  0
   -0.8464    0.2963   -0.2031 C   0  0  0  0  0  0  0  0  0  0  0  0
   -0.1326   -0.3915   -1.3742 C   0  0  0  0  0  0  0  0  0  0  0  0
    0.0298   -1.9249   -1.2909 C   0  0  0  0  0  0  0  0  0  0  0  0
   -0.1295   -2.5743   -2.3386 O   0  0  0  0  0  0  0  0  0  0  0  0
    0.3403   -2.4366   -0.1796 O   0  0  0  0  0  0  0  0  0  0  0  0
    1.2338   -0.5597    2.2704 H   0  0  0  0  0  0  0  0  0  0  0  0
   -0.3977   -0.9007    2.3501 H   0  0  0  0  0  0  0  0  0  0  0  0
   -0.4272    1.3023    1.6564 H   0  0  0  0  0  0  0  0  0  0  0  0
    0.9880    1.0357    0.6203 H   0  0  0  0  0  0  0  0  0  0  0  0
   -1.2373    1.2427   -0.5766 H   0  0  0  0  0  0  0  0  0  0  0  0
   -1.6947   -0.3149    0.1099 H   0  0  0  0  0  0  0  0  0  0  0  0
    0.8736    0.0190   -1.4926 H   0  0  0  0  0  0  0  0  0  0  0  0
   -0.6695   -0.2051   -2.3063 H   0  0  0  0  0  0  0  0  0  0  0  0
    0.4669   -1.4377    1.0065 H   0  0  0  0  0  0  0  0  0  0  0  0
    1.7726    3.8859    2.6780 O   0  0  0  0  0  0  0  0  0  0  0  0
    1.7581    4.8475    2.6524 H   0  0  0  0  0  0  0  0  0  0  0  0
    0.8192    3.6110    2.6565 H   0  0  0  0  0  0  0  0  0  0  0  0
   -0.8318    3.2568    2.7353 O   0  0  0  0  0  0  0  0  0  0  0  0
   -0.9228    3.1126    3.6979 H   0  0  0  0  0  0  0  0  0  0  0  0
   -1.2013    4.1380    2.5530 H   0  0  0  0  0  0  0  0  0  0  0  0
   -1.4511    5.7051    1.5160 O   0  0  0  0  0  0  0  0  0  0  0  0
   -1.0360    5.2664    0.7489 H   0  0  0  0  0  0  0  0  0  0  0  0
   -2.3084    6.0164    1.2154 H   0  0  0  0  0  0  0  0  0  0  0  0
    2.3030    2.8847    0.1769 O   0  0  0  0  0  0  0  0  0  0  0  0
    3.1421    3.1922   -0.1723 H   0  0  0  0  0  0  0  0  0  0  0  0
    2.2507    3.1994    1.1052 H   0  0  0  0  0  0  0  0  0  0  0  0
   -0.3317    3.7888   -0.1562 O   0  0  0  0  0  0  0  0  0  0  0  0
    0.6047    3.5429   -0.2550 H   0  0  0  0  0  0  0  0  0  0  0  0
   -0.6210    3.2975    0.6246 H   0  0  0  0  0  0  0  0  0  0  0  0
    2.0805    2.8462    5.2177 O   0  0  0  0  0  0  0  0  0  0  0  0
    2.6728    3.3999    5.7324 H   0  0  0  0  0  0  0  0  0  0  0  0
    2.1169    3.1763    4.2961 H   0  0  0  0  0  0  0  0  0  0  0  0
   -0.6605    2.7883    5.4307 O   0  0  0  0  0  0  0  0  0  0  0  0
   -0.9423    1.9953    5.8942 H   0  0  0  0  0  0  0  0  0  0  0  0
    0.3191    2.7872    5.4539 H   0  0  0  0  0  0  0  0  0  0  0  0
  1  2  1  0  0  0  0
  2  3  1  0  0  0  0
  3  4  1  0  0  0  0
  4  5  1  0  0  0  0
  5  6  2  0  0  0  0
  5  7  4  0  0  0  0
  1  8  1  0  0  0  0
  1  9  1  0  0  0  0
  2 10  1  0  0  0  0
  2 11  1  0  0  0  0
  3 12  1  0  0  0  0
  3 13  1  0  0  0  0
  4 14  1  0  0  0  0
  4 15  1  0  0  0  0
  1 16  1  0  0  0  0
 17 18  1  0  0  0  0
 17 19  1  0  0  0  0
 20 21  1  0  0  0  0
 20 22  1  0  0  0  0
 23 24  1  0  0  0  0
 23 25  1  0  0  0  0
 26 27  1  0  0  0  0
 26 28  1  0  0  0  0
 29 30  1  0  0  0  0
 29 31  1  0  0  0  0
 32 33  1  0  0  0  0
 32 34  1  0  0  0  0
 35 36  1  0  0  0  0
 35 37  1  0  0  0  0
M  END
