          34
  Built with Packmol                                             
  H            1.420531       -0.693439       -0.457594
  C            0.315625       -0.640915       -0.572756
  H            0.379447        0.341256       -2.375102
  H           -0.020204       -1.577267       -1.069783
  N           -0.042833        0.489322       -1.430827
  H           -0.104344       -1.525775        1.342275
  C           -0.356072       -0.581772        0.809877
  O           -0.155039        1.845644        1.277794
  C            0.099005        0.578296        1.654298
  H            0.334594        1.383914       -1.050468
  O            0.669992        0.373338        2.712012
  H           -1.081518        0.548347       -1.533033
  H           -1.459185       -0.540948        0.693308
  O            1.068080        4.194649        0.375780
  H            1.736524        3.575654        0.763903
  H            0.331995        3.606085        0.071832
  O           -0.746386        2.435890       -5.927145
  H           -1.163042        1.549805       -6.075004
  H           -1.077714        2.720663       -5.038472
  O            2.710522        3.259941       -4.269817
  H            1.937158        2.642340       -4.236827
  H            2.926273        3.438314       -3.319950
  O            3.449779        3.158984       -1.108267
  H            3.643374        3.000479       -0.150140
  H            3.744922        2.329500       -1.561544
  O            2.298274       -3.115850       -2.336114
  H            1.786218       -3.247263       -3.173455
  H            3.127573       -2.656322       -2.621964
  O           -3.745332        2.332049        1.877841
  H           -3.246688        1.476505        1.880811
  H           -3.071319        3.012925        2.128293
  O            1.039751        4.366284       -1.863810
  H            1.938118        4.675022       -1.584118
  H            0.758964        5.015437       -2.556898
