 xtb: 6.7.1 (edcfbbe)
          06092518003D

 34 26  0     0  0            999 V2000
    2.3246    0.9179    0.3068 H   0  0  0  0  0  0  0  0  0  0  0  0
    1.8487    0.0194   -0.0894 C   0  0  0  0  0  0  0  0  0  0  0  0
    1.4832    1.1799   -1.7959 H   0  0  0  0  0  0  0  0  0  0  0  0
    2.6227   -0.6913   -0.3782 H   0  0  0  0  0  0  0  0  0  0  0  0
    1.0396    0.3888   -1.2658 N   0  0  0  0  0  0  0  0  0  0  0  0
    1.5369   -0.9028    1.8529 H   0  0  0  0  0  0  0  0  0  0  0  0
    0.9561   -0.5980    0.9835 C   0  0  0  0  0  0  0  0  0  0  0  0
   -0.6905    1.1158    0.6260 O   0  0  0  0  0  0  0  0  0  0  0  0
   -0.1509    0.3634    1.4836 C   0  0  0  0  0  0  0  0  0  0  0  0
    0.1428    0.7414   -0.8672 H   0  0  0  0  0  0  0  0  0  0  0  0
   -0.4588    0.3249    2.6852 O   0  0  0  0  0  0  0  0  0  0  0  0
    0.8640   -0.4231   -1.8840 H   0  0  0  0  0  0  0  0  0  0  0  0
    0.4492   -1.4817    0.5888 H   0  0  0  0  0  0  0  0  0  0  0  0
   -0.0408    3.5666   -0.5213 O   0  0  0  0  0  0  0  0  0  0  0  0
   -0.2945    2.7872    0.0020 H   0  0  0  0  0  0  0  0  0  0  0  0
   -0.8634    3.9884   -0.7852 H   0  0  0  0  0  0  0  0  0  0  0  0
   -0.7905    2.7809   -5.4665 O   0  0  0  0  0  0  0  0  0  0  0  0
   -1.4352    2.1616   -5.1096 H   0  0  0  0  0  0  0  0  0  0  0  0
   -1.1942    3.6534   -5.4506 H   0  0  0  0  0  0  0  0  0  0  0  0
    2.0819    2.5523   -5.0611 O   0  0  0  0  0  0  0  0  0  0  0  0
    1.1430    2.6012   -5.2962 H   0  0  0  0  0  0  0  0  0  0  0  0
    2.1141    2.7012   -4.1007 H   0  0  0  0  0  0  0  0  0  0  0  0
    4.1433    2.7216   -0.4177 O   0  0  0  0  0  0  0  0  0  0  0  0
    4.3090    3.4657    0.1687 H   0  0  0  0  0  0  0  0  0  0  0  0
    4.9948    2.4354   -0.7648 H   0  0  0  0  0  0  0  0  0  0  0  0
    0.6580   -1.8096   -2.9634 O   0  0  0  0  0  0  0  0  0  0  0  0
   -0.2221   -2.0151   -3.2907 H   0  0  0  0  0  0  0  0  0  0  0  0
    1.2590   -1.8402   -3.7147 H   0  0  0  0  0  0  0  0  0  0  0  0
   -5.1932    2.8807    2.4144 O   0  0  0  0  0  0  0  0  0  0  0  0
   -4.8670    2.0152    2.6791 H   0  0  0  0  0  0  0  0  0  0  0  0
   -4.4194    3.4271    2.2392 H   0  0  0  0  0  0  0  0  0  0  0  0
    1.9986    2.7366   -2.1952 O   0  0  0  0  0  0  0  0  0  0  0  0
    2.7994    2.8134   -1.6473 H   0  0  0  0  0  0  0  0  0  0  0  0
    1.2986    3.1924   -1.6898 H   0  0  0  0  0  0  0  0  0  0  0  0
  1  2  1  0  0  0  0
  2  4  1  0  0  0  0
  2  5  1  0  0  0  0
  3  5  1  0  0  0  0
  2  7  1  0  0  0  0
  6  7  1  0  0  0  0
  7  9  1  0  0  0  0
  8  9  4  0  0  0  0
  5 10  1  0  0  0  0
  9 11  2  0  0  0  0
  5 12  1  0  0  0  0
  7 13  1  0  0  0  0
 14 15  1  0  0  0  0
 14 16  1  0  0  0  0
 17 18  1  0  0  0  0
 17 19  1  0  0  0  0
 20 21  1  0  0  0  0
 20 22  1  0  0  0  0
 23 24  1  0  0  0  0
 23 25  1  0  0  0  0
 26 27  1  0  0  0  0
 26 28  1  0  0  0  0
 29 30  1  0  0  0  0
 29 31  1  0  0  0  0
 32 33  1  0  0  0  0
 32 34  1  0  0  0  0
M  END
