 xtb: 6.7.1 (edcfbbe)
          06092518003D

 37 29  0     0  0            999 V2000
    0.1427   -0.6763    2.3741 N   0  0  0  0  0  0  0  0  0  0  0  0
   -0.2528   -1.1660    1.0368 C   0  0  0  0  0  0  0  0  0  0  0  0
    0.0273   -0.1262   -0.0428 C   0  0  0  0  0  0  0  0  0  0  0  0
   -0.0480   -0.7798   -1.4152 C   0  0  0  0  0  0  0  0  0  0  0  0
   -0.0217    0.2085   -2.5957 C   0  0  0  0  0  0  0  0  0  0  0  0
   -0.1258    1.4298   -2.3723 O   0  0  0  0  0  0  0  0  0  0  0  0
    0.0968   -0.3042   -3.7430 O   0  0  0  0  0  0  0  0  0  0  0  0
    1.1706   -0.6477    2.4377 H   0  0  0  0  0  0  0  0  0  0  0  0
   -0.2422    0.2552    2.5417 H   0  0  0  0  0  0  0  0  0  0  0  0
   -1.3137   -1.4116    1.0290 H   0  0  0  0  0  0  0  0  0  0  0  0
    0.3137   -2.0695    0.8111 H   0  0  0  0  0  0  0  0  0  0  0  0
    1.0250    0.3001    0.0727 H   0  0  0  0  0  0  0  0  0  0  0  0
   -0.6893    0.6972   -0.0129 H   0  0  0  0  0  0  0  0  0  0  0  0
   -0.9701   -1.3567   -1.5227 H   0  0  0  0  0  0  0  0  0  0  0  0
    0.7884   -1.4640   -1.5542 H   0  0  0  0  0  0  0  0  0  0  0  0
   -0.1686   -1.3403    3.1238 H   0  0  0  0  0  0  0  0  0  0  0  0
    2.4480   -2.0069    3.2615 O   0  0  0  0  0  0  0  0  0  0  0  0
    3.2768   -1.9203    3.7389 H   0  0  0  0  0  0  0  0  0  0  0  0
    1.7905   -2.3510    3.8826 H   0  0  0  0  0  0  0  0  0  0  0  0
   -1.8831   -3.6718   -2.2598 O   0  0  0  0  0  0  0  0  0  0  0  0
   -1.0812   -3.4744   -2.7810 H   0  0  0  0  0  0  0  0  0  0  0  0
   -2.4777   -4.1256   -2.8638 H   0  0  0  0  0  0  0  0  0  0  0  0
    0.3892   -2.9777   -3.7356 O   0  0  0  0  0  0  0  0  0  0  0  0
    1.1190   -3.0886   -3.0999 H   0  0  0  0  0  0  0  0  0  0  0  0
    0.2668   -1.9973   -3.8064 H   0  0  0  0  0  0  0  0  0  0  0  0
    2.0677   -3.5850    0.9755 O   0  0  0  0  0  0  0  0  0  0  0  0
    2.1283   -4.4941    1.2810 H   0  0  0  0  0  0  0  0  0  0  0  0
    2.3288   -3.0173    1.7258 H   0  0  0  0  0  0  0  0  0  0  0  0
   -0.3294   -2.4452    4.4233 O   0  0  0  0  0  0  0  0  0  0  0  0
   -0.8615   -3.2213    4.2243 H   0  0  0  0  0  0  0  0  0  0  0  0
   -0.6759   -2.0623    5.2355 H   0  0  0  0  0  0  0  0  0  0  0  0
    2.4458   -3.1014   -1.7615 O   0  0  0  0  0  0  0  0  0  0  0  0
    3.3212   -3.4399   -1.9717 H   0  0  0  0  0  0  0  0  0  0  0  0
    2.2957   -3.2961   -0.8165 H   0  0  0  0  0  0  0  0  0  0  0  0
    1.1260   -4.0391   -6.2125 O   0  0  0  0  0  0  0  0  0  0  0  0
    1.0474   -3.2702   -6.7847 H   0  0  0  0  0  0  0  0  0  0  0  0
    0.8410   -3.7343   -5.3292 H   0  0  0  0  0  0  0  0  0  0  0  0
  1  2  1  0  0  0  0
  2  3  1  0  0  0  0
  3  4  1  0  0  0  0
  4  5  1  0  0  0  0
  5  6  2  0  0  0  0
  5  7  4  0  0  0  0
  1  8  1  0  0  0  0
  1  9  1  0  0  0  0
  2 10  1  0  0  0  0
  2 11  1  0  0  0  0
  3 12  1  0  0  0  0
  3 13  1  0  0  0  0
  4 14  1  0  0  0  0
  4 15  1  0  0  0  0
  1 16  1  0  0  0  0
 17 18  1  0  0  0  0
 17 19  1  0  0  0  0
 20 21  1  0  0  0  0
 20 22  1  0  0  0  0
 23 24  1  0  0  0  0
 23 25  1  0  0  0  0
 26 27  1  0  0  0  0
 26 28  1  0  0  0  0
 29 30  1  0  0  0  0
 29 31  1  0  0  0  0
 32 33  1  0  0  0  0
 32 34  1  0  0  0  0
 35 36  1  0  0  0  0
 35 37  1  0  0  0  0
M  END
