 xtb: 6.7.1 (edcfbbe)
          06092517523D

 34 26  0     0  0            999 V2000
    0.1215   -0.6961    0.7872 C   0  0  0  0  0  0  0  0  0  0  0  0
   -0.5028   -0.0974    2.0629 C   0  0  0  0  0  0  0  0  0  0  0  0
   -0.9415   -0.9351    2.9087 O   0  0  0  0  0  0  0  0  0  0  0  0
   -0.5606    1.1326    2.2000 O   0  0  0  0  0  0  0  0  0  0  0  0
    0.1352    0.2883   -0.3762 C   0  0  0  0  0  0  0  0  0  0  0  0
   -0.2383   -0.3829   -1.6356 N   0  0  0  0  0  0  0  0  0  0  0  0
    1.1243   -1.0308    1.0573 H   0  0  0  0  0  0  0  0  0  0  0  0
   -0.4621   -1.5811    0.5389 H   0  0  0  0  0  0  0  0  0  0  0  0
   -0.5744    1.0881   -0.1486 H   0  0  0  0  0  0  0  0  0  0  0  0
    1.1228    0.7349   -0.4824 H   0  0  0  0  0  0  0  0  0  0  0  0
   -1.1303   -0.9107   -1.5069 H   0  0  0  0  0  0  0  0  0  0  0  0
    0.5211   -1.0605   -1.9353 H   0  0  0  0  0  0  0  0  0  0  0  0
   -0.3574    0.3007   -2.3833 H   0  0  0  0  0  0  0  0  0  0  0  0
   -2.6315   -1.7220   -1.1599 O   0  0  0  0  0  0  0  0  0  0  0  0
   -3.4717   -1.2941   -1.3460 H   0  0  0  0  0  0  0  0  0  0  0  0
   -2.6834   -2.0349   -0.2408 H   0  0  0  0  0  0  0  0  0  0  0  0
    0.9557   -1.8820   -5.3050 O   0  0  0  0  0  0  0  0  0  0  0  0
    1.5724   -1.8190   -6.0391 H   0  0  0  0  0  0  0  0  0  0  0  0
    0.2119   -2.4189   -5.5961 H   0  0  0  0  0  0  0  0  0  0  0  0
    1.4546   -4.6867   -1.9614 O   0  0  0  0  0  0  0  0  0  0  0  0
    0.5722   -5.0661   -1.8959 H   0  0  0  0  0  0  0  0  0  0  0  0
    1.9407   -4.9586   -1.1779 H   0  0  0  0  0  0  0  0  0  0  0  0
   -2.7218   -2.4943    1.5264 O   0  0  0  0  0  0  0  0  0  0  0  0
   -2.7608   -3.3608    1.9422 H   0  0  0  0  0  0  0  0  0  0  0  0
   -2.1489   -1.9434    2.0957 H   0  0  0  0  0  0  0  0  0  0  0  0
    0.6730   -2.9309    3.7253 O   0  0  0  0  0  0  0  0  0  0  0  0
    0.5834   -2.9719    4.6826 H   0  0  0  0  0  0  0  0  0  0  0  0
    0.0711   -2.2131    3.4305 H   0  0  0  0  0  0  0  0  0  0  0  0
    1.7033   -1.9688   -2.6029 O   0  0  0  0  0  0  0  0  0  0  0  0
    1.6814   -2.9143   -2.3764 H   0  0  0  0  0  0  0  0  0  0  0  0
    1.5401   -1.9217   -3.5613 H   0  0  0  0  0  0  0  0  0  0  0  0
    2.9398   -2.1157    2.3045 O   0  0  0  0  0  0  0  0  0  0  0  0
    2.1898   -2.5152    2.7810 H   0  0  0  0  0  0  0  0  0  0  0  0
    3.5033   -1.7187    2.9745 H   0  0  0  0  0  0  0  0  0  0  0  0
  1  2  1  0  0  0  0
  2  3  4  0  0  0  0
  2  4  2  0  0  0  0
  1  5  1  0  0  0  0
  5  6  1  0  0  0  0
  1  7  1  0  0  0  0
  1  8  1  0  0  0  0
  5  9  1  0  0  0  0
  5 10  1  0  0  0  0
  6 11  1  0  0  0  0
  6 12  1  0  0  0  0
  6 13  1  0  0  0  0
 14 15  1  0  0  0  0
 14 16  1  0  0  0  0
 17 18  1  0  0  0  0
 17 19  1  0  0  0  0
 20 21  1  0  0  0  0
 20 22  1  0  0  0  0
 23 24  1  0  0  0  0
 23 25  1  0  0  0  0
 26 27  1  0  0  0  0
 26 28  1  0  0  0  0
 29 30  1  0  0  0  0
 29 31  1  0  0  0  0
 32 33  1  0  0  0  0
 32 34  1  0  0  0  0
M  END
