         616
  Built with Packmol                                             
  N            0.058148       -0.927583        1.469607
  C            0.211959        0.510020        1.257389
  C           -0.420296        1.026601       -0.053995
  C            0.232909        0.510995       -1.351786
  C           -0.125253       -0.896436       -1.755618
  O            0.432585       -1.420882       -2.861979
  O           -0.947959       -1.551103       -1.137172
  H            0.428548       -1.166868        2.416841
  H           -0.951876       -1.193831        1.431538
  H           -0.278739        1.044785        2.100148
  H            1.291996        0.772629        1.278823
  H           -0.263312        2.127518       -0.038280
  H           -1.516957        0.851348       -0.073370
  H            1.334639        0.617682       -1.263614
  H           -0.104560        1.158543       -2.189480
  H            0.618166       -1.463418        0.770947
  O           -2.750021        0.336690        6.439803
  H           -2.446871        0.716591        5.577025
  H           -3.708116        0.580773        6.495394
  O           -2.316106        3.201054       -8.484632
  H           -2.111649        3.782772       -9.259495
  H           -3.239708        2.884074       -8.649239
  O            3.907693       -3.114803        9.207870
  H            3.649672       -2.176312        9.025464
  H            3.062158       -3.624267        9.129579
  O            5.089224        6.151237        0.428663
  H            4.870261        6.424699       -0.497558
  H            4.219146        6.157520        0.901460
  O            2.270348        5.257986        0.474120
  H            1.755463        5.836973        1.090788
  H            2.445599        5.829985       -0.315004
  O            5.515974        1.969437        8.312514
  H            6.023137        1.144137        8.518129
  H            5.059983        2.198354        9.161208
  O           -5.246490        1.339572        7.838916
  H           -5.506561        1.214033        8.786130
  H           -5.893468        2.003029        7.489837
  O            0.375161       -0.987959       -8.131201
  H           -0.116080       -1.401828       -8.884863
  H            0.865493       -1.739367       -7.712187
  O           -1.415965        5.593666       -5.075529
  H           -1.660573        5.666723       -6.032316
  H           -0.644881        4.972462       -5.063316
  O           -1.734482        5.036367        3.837801
  H           -1.483481        5.859839        3.348410
  H           -0.895495        4.512852        3.889231
  O           -0.313572       -6.103462       -1.825063
  H            0.675084       -6.048920       -1.811118
  H           -0.572265       -5.697472       -2.690432
  O           -5.087321       -3.734876        8.385263
  H           -4.528346       -3.930832        7.591690
  H           -5.580931       -4.576401        8.554962
  O           -3.559274       -0.223659       -0.632943
  H           -3.231652       -0.439239        0.276342
  H           -2.796321       -0.434422       -1.228002
  O           -3.416586        3.385665        6.287989
  H           -3.944945        2.741251        6.822945
  H           -2.889217        2.820622        5.668940
  O           -4.837108       -0.750103       -3.485514
  H           -4.214255       -0.869580       -4.246033
  H           -4.311395       -1.017187       -2.689960
  O           -5.169523        0.842368       -1.652219
  H           -5.537791        1.472886       -2.321126
  H           -5.911214        0.211755       -1.471013
  O           -1.439499        3.219094       -6.100068
  H           -1.790441        2.418084       -6.564648
  H           -1.022178        3.759123       -6.817581
  O            2.841948       -5.392217        5.327229
  H            1.945609       -5.775349        5.152882
  H            3.194714       -5.167780        4.429567
  O           -0.060642       -3.631464       -8.223730
  H           -0.992109       -3.711525       -8.550181
  H            0.477730       -3.488223       -9.042418
  O            5.306968        5.621387       -5.491026
  H            5.784374        4.999852       -6.096327
  H            4.409832        5.723551       -5.897625
  O           -5.451243       -0.016884       -5.811030
  H           -4.961609       -0.379592       -6.591614
  H           -6.237657        0.440519       -6.202117
  O           -5.447637       -0.568496        5.844812
  H           -5.817170        0.338810        5.989217
  H           -5.905958       -0.896345        5.030521
  O            4.883127        2.346724        1.649712
  H            5.386927        1.978532        2.418628
  H            4.492974        1.552356        1.205446
  O           -0.014340       -4.020618       -1.415436
  H            0.420400       -3.138739       -1.533341
  H           -0.972845       -3.851026       -1.597423
  O            5.428282        3.447143       -3.392780
  H            6.044330        2.685846       -3.539486
  H            5.820705        4.188762       -3.918724
  O            2.380036       -1.491603       -0.395416
  H            2.576100       -2.175936        0.292957
  H            2.427906       -0.630090        0.090502
  O           -0.760869        3.032805        6.616670
  H           -1.229376        2.230589        6.959544
  H           -1.348281        3.789444        6.867781
  O           -5.566903       -5.393985        2.152622
  H           -4.602979       -5.523821        1.966605
  H           -5.711761       -5.832322        3.028687
  O            0.467416        5.074004       -0.746896
  H            0.125563        6.002631       -0.709500
  H           -0.222546        4.536734       -0.282239
  O            1.999527       -5.489598        8.652092
  H            2.184532       -6.220972        8.010628
  H            1.011848       -5.460876        8.717491
  O            5.411158       -5.095572        5.662028
  H            4.868831       -5.840391        6.024984
  H            6.176003       -5.018428        6.286267
  O           -2.497488       -0.779422       -5.734265
  H           -2.093808       -0.263893       -6.477153
  H           -3.130766       -1.398528       -6.177301
  O            1.806706        1.482052        7.343846
  H            1.086381        1.624175        6.679358
  H            1.664355        0.558036        7.670258
  O            4.948400        0.263921       -7.758915
  H            4.170478        0.866569       -7.869661
  H            5.564910        0.517498       -8.491191
  O           -2.557129       -6.094870       -3.518541
  H           -1.971367       -6.126348       -4.316353
  H           -3.317760       -5.522619       -3.791639
  O           -3.411953       -6.552759       -6.634737
  H           -3.658858       -5.861843       -7.299781
  H           -3.814783       -6.236500       -5.787198
  O           -3.654958       -0.848968        4.637169
  H           -4.056164       -0.000682        4.320856
  H           -3.370981       -1.312848        3.809651
  O           -0.254882        2.566393       -8.420875
  H           -0.259147        2.682467       -9.404298
  H            0.577423        3.012029       -8.122062
  O           -5.897326        5.314488       -7.753768
  H           -5.450876        5.183964       -6.879551
  H           -5.601611        6.211299       -8.051920
  O            3.911119       -3.606898       -6.662245
  H            3.412315       -4.390503       -7.005420
  H            4.098208       -3.827251       -5.715115
  O           -3.846291        1.178617       -3.648941
  H           -3.508214        2.091323       -3.831379
  H           -3.346840        0.884958       -2.845868
  O            3.179045       -5.919486       -5.514143
  H            2.257026       -5.862263       -5.870820
  H            3.136641       -5.454140       -4.641063
  O            5.161090       -4.876474        8.715497
  H            5.470597       -4.137240        8.133819
  H            5.264650       -5.689497        8.159725
  O            2.169607        5.515151        9.008189
  H            1.500364        4.915571        9.424397
  H            2.982830        4.956833        8.921228
  O           -1.033055        5.384427       -8.229823
  H           -0.598705        6.194663       -7.861763
  H           -0.304444        4.902420       -8.696093
  O           -3.762884       -2.355936       -1.055564
  H           -4.176198       -2.477347       -0.163913
  H           -4.059142       -3.144712       -1.575830
  O            5.253803       -5.393500        3.545673
  H            6.177715       -5.545050        3.223135
  H            4.959657       -6.277859        3.880337
  O            0.696901       -3.880790        6.840837
  H            0.278013       -2.987235        6.922710
  H            1.530959       -3.813261        7.370365
  O           -6.209182        2.534033       -5.120514
  H           -5.455741        1.960779       -4.830139
  H           -5.798099        3.190229       -5.737790
  O            5.078998       -5.192818       -8.161419
  H            4.961618       -5.843725       -7.424430
  H            6.034012       -5.270658       -8.411421
  O           -5.300764        5.126348        0.914488
  H           -4.436208        4.832500        0.531335
  H           -5.567185        5.902075        0.359617
  O           -1.766922        1.140864       -9.124324
  H           -2.144966        1.048786       -8.213711
  H           -0.935650        0.603127       -9.103391
  O            5.767524        1.979941       -6.064416
  H            5.635581        2.875730       -5.663463
  H            5.753143        2.140859       -7.041407
  O           -5.214645        1.258735       -8.887989
  H           -5.781290        0.692576       -8.305762
  H           -4.302704        0.887083       -8.783817
  O           -3.404561       -2.397093        8.692795
  H           -3.305840       -1.421004        8.827382
  H           -2.504887       -2.765702        8.880751
  O           -1.880510        0.749509       -4.447832
  H           -1.523534        1.662587       -4.587355
  H           -1.388706        0.408736       -3.658772
  O            2.781100       -3.767437        2.813105
  H            3.708595       -3.473690        2.628507
  H            2.260260       -3.449353        2.033258
  O            3.771290        0.647016        8.286030
  H            3.257091        0.654039        9.132293
  H            3.673457       -0.277114        7.943940
  O            5.138681        0.650444        6.598746
  H            6.063822        0.308727        6.509548
  H            5.020803        1.253064        5.821850
  O           -0.261052        5.311611        5.805435
  H           -0.534446        6.127110        5.314693
  H            0.696026        5.456774        6.014105
  O            5.635760        0.293186        3.964306
  H            4.675269        0.472141        3.802929
  H            5.644355       -0.504630        4.550845
  O            2.903979        6.045480        7.038125
  H            2.709827        6.314626        6.105132
  H            3.795097        5.616053        6.992134
  O           -2.174384       -1.518220       -3.023125
  H           -1.514931       -1.724434       -3.732497
  H           -2.284273       -2.370577       -2.531164
  O           -0.939866       -1.992592        5.416094
  H           -0.316016       -1.876423        4.655878
  H           -1.615402       -1.278906        5.293967
  O           -5.099478       -4.782273       -4.805502
  H           -5.899974       -4.199336       -4.804333
  H           -5.412667       -5.634596       -4.410443
  O            1.914792        2.394485       -0.154477
  H            1.511433        3.291861       -0.042103
  H            2.610956        2.345646        0.548077
  O            4.474205        0.276811       -4.774201
  H            4.712450        1.159855       -4.394619
  H            4.217927        0.470391       -5.710930
  O            5.719552       -1.017719        8.438013
  H            5.290283       -0.760133        9.292406
  H            5.757994       -2.006778        8.467961
  O            1.485848       -1.457344        8.404415
  H            1.355640       -2.292545        8.920260
  H            2.069971       -1.720595        7.649358
  O           -5.312253       -0.879328        8.148220
  H           -6.227113       -0.607772        7.883838
  H           -5.448855       -1.631822        8.777272
  O            3.503746       -1.116368        1.932833
  H            4.099853       -1.326621        2.695106
  H            3.381934       -0.134604        1.976585
  O            6.046456        1.953285       -0.278442
  H            5.672420        1.092202       -0.593470
  H            5.335380        2.616304       -0.466563
  O           -3.169748        5.566187       -8.602939
  H           -3.946668        4.960607       -8.704324
  H           -3.428512        6.181384       -7.871375
  O           -0.944733       -4.150812        8.299541
  H           -0.278621       -3.737733        8.904745
  H           -1.282403       -4.935307        8.800698
  O           -1.961599        5.832800       -0.053118
  H           -2.411755        6.178622        0.758287
  H           -2.382170        4.950711       -0.213283
  O           -4.033131       -2.657127        1.992696
  H           -3.721240       -3.544456        1.682888
  H           -3.303935       -2.036131        1.741202
  O           -3.741096       -3.381502       -3.807136
  H           -4.609649       -2.931310       -3.653663
  H           -3.255237       -2.779218       -4.425042
  O            2.905257       -5.768363       -2.112428
  H            2.645559       -5.398657       -1.231244
  H            3.408343       -5.036281       -2.550119
  O            1.073444        2.995903       -2.169445
  H            1.694179        2.319196       -2.540073
  H            1.614047        3.823617       -2.112423
  O           -3.574890        5.376141       -5.001395
  H           -3.619577        5.912046       -4.169878
  H           -3.797198        6.017661       -5.722259
  O            4.282686       -0.679937       -1.073967
  H            4.322275       -1.635661       -1.330159
  H            4.503017       -0.672533       -0.108559
  O           -6.089360        4.086128       -0.815903
  H           -5.836260        3.134738       -0.922715
  H           -5.436807        4.580510       -1.373014
  O            5.778977       -3.753718       -2.718061
  H            5.066051       -3.781815       -2.031360
  H            5.395230       -3.210905       -3.452026
  O           -3.926592       -3.435774       -8.391115
  H           -3.919535       -2.774289       -7.654231
  H           -3.104860       -3.970644       -8.252250
  O            5.073903       -2.394551       -8.227607
  H            5.634384       -3.129916       -8.582163
  H            5.298762       -1.615196       -8.795635
  O            3.770882        2.981027       -7.274794
  H            3.665797        2.441879       -6.450848
  H            4.153067        3.839517       -6.962477
  O           -3.726221        5.830411       -1.976835
  H           -2.763993        6.042642       -2.075255
  H           -3.968084        6.183491       -1.083835
  O            6.337446       -1.693628       -0.504027
  H            6.489748       -2.442333       -1.133993
  H            6.443833       -0.878843       -1.056674
  O            5.706470       -0.109581        1.825547
  H            6.372877        0.436928        1.337859
  H            5.886124       -1.038643        1.533688
  O           -5.381779        3.123784        1.758220
  H           -5.589704        3.694558        2.540265
  H           -4.394400        3.048388        1.761612
  O           -1.101150       -5.817202       -7.960854
  H           -0.302287       -5.775309       -8.544527
  H           -1.866635       -5.710936       -8.580008
  O            5.119552       -6.034544       -1.640905
  H            6.042997       -5.693967       -1.749847
  H            4.782347       -5.581430       -0.827521
  O            0.812827       -5.892629        2.549837
  H            1.266608       -5.254087        3.155607
  H            0.117369       -6.317098        3.112666
  O            2.789687       -5.623131        1.665456
  H            3.486533       -5.785099        2.350133
  H            3.290462       -5.549771        0.814306
  O            0.383411       -5.025611       -6.571073
  H            0.002587       -5.787471       -6.065945
  H            0.001814       -4.222896       -6.134444
  O           -1.440303       -5.339657        0.986961
  H           -2.241728       -5.891462        0.803005
  H           -0.999505       -5.240851        0.105742
  O            6.025723       -3.221658       -6.456352
  H            6.082179       -4.209894       -6.484865
  H            6.076290       -2.997957       -5.493018
  O           -0.471914       -4.073699        4.906893
  H           -0.069870       -4.976024        4.837746
  H           -1.096802       -4.138509        5.672352
  O           -5.876021       -1.960462       -1.480145
  H           -6.171611       -2.094614       -2.415688
  H           -6.139516       -2.793896       -1.014773
  O           -0.639736        1.715085        4.920446
  H           -1.135266        2.407404        4.414723
  H           -0.153851        1.201500        4.227078
  O           -0.148475        5.187059        8.011876
  H           -1.013293        5.289357        8.483294
  H            0.269012        6.083608        8.062049
  O            1.936570        3.555077        6.660331
  H            1.660431        4.122858        7.423209
  H            2.455955        4.161706        6.074795
  O            3.224139        4.902586        2.404050
  H            3.526214        5.715363        2.882335
  H            3.504230        4.152968        2.987346
  O            1.003830       -5.176578       -4.227226
  H            1.037004       -6.157132       -4.092971
  H            1.438312       -4.800879       -3.420573
  O            2.415261        4.090535       -8.559351
  H            1.774826        4.432765       -9.232651
  H            3.305966        4.328820       -8.920570
  O           -5.876775       -2.178399       -5.802206
  H           -4.939684       -2.496553       -5.766863
  H           -6.077220       -1.893598       -4.875210
  O           -0.092122        1.168252       -6.125238
  H            0.333491        2.053054       -6.254039
  H           -0.317626        0.865777       -7.040809
  O            1.036265       -4.710409        0.718364
  H            1.522363       -4.095013        0.113708
  H            1.116961       -5.597817        0.286383
  O            4.408532        2.600486        4.226623
  H            3.902188        2.920308        5.015255
  H            5.344450        2.868991        4.407114
  O           -5.057499       -5.890071        5.987155
  H           -5.213386       -5.477378        5.100592
  H           -5.721060       -5.458223        6.581973
  O            2.226628        0.824850       -6.671090
  H            2.174318        1.138494       -5.733272
  H            1.671430        0.005085       -6.689868
  O            2.751447       -0.887480       -8.362166
  H            3.360164       -1.182396       -7.638910
  H            3.346986       -0.723178       -9.136085
  O           -2.097979        0.139812        2.846123
  H           -1.408682       -0.349060        3.362345
  H           -2.329876        0.916323        3.415216
  O            3.188318        0.145428        5.347815
  H            2.864766        1.066186        5.515537
  H            2.708417       -0.410964        6.011694
  O            5.282134        3.418061       -8.773543
  H            4.947446        2.526764       -9.045913
  H            6.267619        3.321260       -8.765720
  O            6.149074        4.315974       -1.509341
  H            5.622136        5.043244       -1.926505
  H            6.244731        4.590460       -0.562705
  O            0.906904        3.200031       -4.342357
  H           -0.045384        3.106318       -4.087454
  H            1.121385        4.148680       -4.156144
  O            0.081701        5.768152       -3.142468
  H            0.988131        5.809067       -2.745830
  H           -0.326825        4.958492       -2.744763
  O            3.162934       -2.928930       -9.053085
  H            2.468937       -3.027159       -8.353565
  H            3.627505       -3.803353       -9.066188
  O           -5.217105       -5.507449       -8.753012
  H           -5.773998       -4.729905       -9.009732
  H           -4.380367       -5.395004       -9.270543
  O            3.845923       -4.018182        6.670045
  H            3.584017       -3.154758        7.078107
  H            3.512727       -4.702954        7.303039
  O            2.778472        1.403142        3.371080
  H            1.802386        1.250767        3.302896
  H            2.975792        2.067859        2.664094
  O            2.253781       -3.265296        5.379228
  H            1.662587       -3.660375        4.690017
  H            1.852524       -2.380944        5.572948
  O           -5.844380       -1.776415       -7.967187
  H           -5.990734       -2.701432       -8.288957
  H           -5.236870       -1.373745       -8.637561
  O           -2.261454       -1.081994       -8.670252
  H           -3.149743       -0.866381       -8.289380
  H           -2.332853       -2.030774       -8.944717
  O            4.097627        4.390925       -0.347555
  H            3.384692        3.934387       -0.861275
  H            4.030829        4.008355        0.563373
  O            1.260904        2.774118        4.765470
  H            0.627601        3.499076        4.997792
  H            1.942683        3.212989        4.196979
  O            2.416969       -3.078817       -2.567298
  H            3.322721       -2.881504       -2.915566
  H            2.556759       -3.267728       -1.605329
  O            3.876968       -1.692624       -5.597430
  H            2.965750       -1.311535       -5.526263
  H            4.129347       -1.908081       -4.664426
  O           -5.798908        3.792333        4.702453
  H           -5.670983        3.715141        5.681375
  H           -5.819075        4.767429        4.531007
  O            2.201918       -0.858948        3.669807
  H            2.119322       -1.827361        3.480160
  H            1.444961       -0.659463        4.276301
  O           -0.837604       -4.072401       -4.125106
  H           -0.245061       -3.486825       -3.589752
  H           -1.691067       -4.087275       -3.623117
  O           -2.378064       -3.175473        3.335717
  H           -2.412657       -3.171576        4.325363
  H           -1.697366       -2.493075        3.108570
  O            1.325297        5.186655        3.536305
  H            0.710233        5.962675        3.526394
  H            1.946838        5.372244        4.284541
  O            5.151909        4.007995        6.427869
  H            5.782614        4.771344        6.416896
  H            5.730355        3.209539        6.519956
  O            3.073312        3.366759       -4.590958
  H            3.881185        3.886103       -4.832273
  H            3.370181        2.773522       -3.855735
  O            5.401632       -1.094964       -3.120466
  H            5.436604       -0.144487       -2.844821
  H            5.997100       -1.146383       -3.910014
  O           -2.925495       -5.257211        3.782579
  H           -2.109935       -5.499007        4.289539
  H           -2.641879       -5.273475        2.833943
  O            3.249980       -0.715456       -3.008481
  H            2.478704       -0.933210       -2.426822
  H            3.293845        0.273812       -3.002350
  O            2.545730        6.249361       -8.270846
  H            2.834162        5.853120       -7.410375
  H            1.561335        6.323080       -8.192448
  O           -1.664751       -3.168523        0.833699
  H           -2.263259       -3.457894        0.099762
  H           -0.773396       -3.088121        0.409865
  O           -5.427223       -2.780593        5.996616
  H           -5.924301       -2.471555        6.795377
  H           -5.981215       -3.513973        5.628024
  O           -2.588680       -4.487397       -5.544735
  H           -3.333243       -4.121838       -6.085663
  H           -2.019242       -4.966439       -6.198090
  O           -6.211518       -1.221835        0.744338
  H           -5.395310       -0.794932        0.380787
  H           -5.910101       -2.114806        1.048253
  O           -3.803550        2.523979       -1.401487
  H           -3.679260        3.380281       -0.919918
  H           -3.185442        1.894443       -0.951776
  O           -5.047471        3.414976       -3.129424
  H           -6.037215        3.446299       -3.135451
  H           -4.780159        3.855251       -3.975187
  O           -3.829935        3.501227        3.806103
  H           -3.696618        4.315031        4.354337
  H           -2.917321        3.239431        3.524657
  O           -1.616820       -2.864851       -6.632388
  H           -1.170453       -2.117136       -7.103865
  H           -1.454070       -2.685173       -5.672263
  O           -3.690680        1.390487       -6.744482
  H           -3.589450        1.137889       -5.792349
  H           -4.614056        1.741987       -6.811092
  O            0.271521       -1.330796       -5.660745
  H            0.474223       -2.007436       -4.966712
  H           -0.372882       -0.716303       -5.227437
  O            4.593972       -2.395787        4.514721
  H            4.333853       -3.333121        4.700068
  H            3.801475       -1.862235        4.775267
  O            1.961672       -3.730995       -5.540413
  H            1.851479       -3.052545       -6.253277
  H            2.246078       -3.212411       -4.746186
  O           -6.196986        5.493791       -3.902504
  H           -5.545492        5.744127       -3.200010
  H           -5.717039        5.652728       -4.753975
  O            5.755006       -5.310286        1.089977
  H            5.316759       -6.189296        1.216041
  H            5.145277       -4.664075        1.527305
  O           -5.709755       -4.828655       -0.328617
  H           -5.311324       -4.235915        0.357330
  H           -5.509483       -5.745047       -0.011239
  O           -5.295334        3.311841       -8.155844
  H           -6.146668        2.912454       -7.845470
  H           -5.417493        3.429168       -9.131510
  O           -4.565176       -3.118452        4.035856
  H           -5.339120       -2.573148        3.745573
  H           -4.694962       -3.991838        3.587564
  O           -3.879005        3.725446       -6.560048
  H           -3.122510        4.309141       -6.820096
  H           -3.594059        3.316445       -5.704398
  O            4.844582       -3.188614        0.056987
  H            4.024617       -3.720409       -0.102581
  H            4.630935       -2.635104        0.849827
  O           -0.451341       -5.753502        6.965147
  H           -1.062959       -6.209129        6.333530
  H            0.454247       -6.035819        6.680859
  O            4.909460        5.012088        4.433479
  H            5.354918        5.879561        4.605723
  H            4.033849        5.087915        4.889735
  O           -5.453975        1.675706        4.310380
  H           -4.733636        1.909222        4.948496
  H           -5.025738        1.736794        3.419597
  O           -1.379256       -1.199337        7.870251
  H           -0.676811       -1.683784        8.372738
  H           -1.479719       -0.339370        8.350852
  O            5.789167       -2.890626        2.702171
  H            6.452996       -3.044259        1.983604
  H            6.141933       -3.395121        3.477835
  O            3.735595        5.673419       -2.797034
  H            3.449394        4.728098       -2.868231
  H            4.393464        5.789197       -3.528072
  O            5.392086        4.760219        2.077008
  H            5.805572        4.081181        2.667387
  H            5.664349        5.628133        2.468429
  O            3.694088        3.185856        7.827658
  H            3.755306        2.480666        7.135148
  H            3.063825        2.820728        8.498525
  O            1.271454        0.442076       -3.635225
  H            0.675369        1.035503       -4.157852
  H            1.550654       -0.257567       -4.278000
  O           -4.890664       -4.945913       -2.410748
  H           -5.703981       -4.382943       -2.457556
  H           -5.227291       -5.850090       -2.187678
  O           -1.993781        2.371585        1.431596
  H           -2.247320        2.977041        0.690144
  H           -2.729624        1.710297        1.474574
  O            2.129312        1.069711       -8.910178
  H            1.192715        0.961396       -8.607416
  H            2.408041        1.947163       -8.545486
  O           -6.114291       -4.874397       -6.861450
  H           -5.320799       -4.286211       -6.932286
  H           -5.743641       -5.765333       -6.639046
  O            5.839636       -0.915747       -6.144186
  H            6.310000       -0.115302       -5.799721
  H            6.349147       -1.173975       -6.953093
  O           -4.786292        5.590036        6.272015
  H           -4.317462        5.879976        7.094659
  H           -5.742343        5.773340        6.453619
  O           -5.012991       -0.783993        2.520412
  H           -5.736906       -0.271159        2.960364
  H           -4.390156       -0.092879        2.181218
  O            5.463944       -5.124896       -4.587942
  H            5.144419       -5.539384       -3.747279
  H            5.330574       -5.824597       -5.275869
  O           -0.049149       -3.721704        2.319146
  H           -0.676889       -4.352475        2.753521
  H            0.355402       -3.217999        3.069634
  O           -0.195365        4.912497        1.846618
  H           -0.385652        5.807911        1.468947
  H           -1.042416        4.411560        1.736256
  O            2.055069        6.000633       -5.399923
  H            2.600666        5.616749       -4.668098
  H            1.153531        6.111290       -5.005465
  O           -1.169621        3.023281       -2.214670
  H           -1.770820        2.310712       -2.548461
  H           -1.564749        3.295684       -1.348480
  O            2.231951       -5.900157       -8.049292
  H            1.748953       -5.062022       -8.261082
  H            3.059415       -5.853389       -8.591259
  O           -3.843178        5.857879        2.377057
  H           -4.639919        5.625590        2.917295
  H           -3.314320        5.021379        2.342574
  O            3.722327        2.060903       -1.832443
  H            4.554592        1.785764       -2.293143
  H            3.582834        1.368958       -1.137917
  O            5.721677       -1.843266        6.281309
  H            4.839790       -1.491015        6.562031
  H            5.640278       -2.824994        6.382290
  O            1.079574        4.086983       -6.305003
  H            2.064265        4.055989       -6.405179
  H            0.805413        4.900249       -6.799016
  O           -3.475505       -6.046471        8.716010
  H           -3.455964       -5.106320        9.026402
  H           -4.104683       -6.042257        7.951333
  O           -2.279989        4.419584       -3.446461
  H           -2.142573        3.737859       -4.151428
  H           -2.979492        4.033799       -2.861244
  O           -3.302546       -2.345091        6.158790
  H           -2.544583       -2.657975        6.713954
  H           -3.707097       -1.609063        6.683398
  O           -5.446197        3.758287        8.714755
  H           -4.647041        3.189388        8.850088
  H           -5.350927        4.104431        7.791868
  O            0.323908        2.643385        8.458147
  H           -0.454133        3.169543        8.771868
  H            0.077785        1.702206        8.643128
  O            4.993552        5.454801       -8.080766
  H            5.970667        5.424464       -8.238679
  H            4.651042        6.083341       -8.765045
  O           -2.898997       -4.991935       -1.411585
  H           -2.432254       -5.864733       -1.380201
  H           -3.563276       -5.039329       -0.678714
  O            0.761207        2.948522        1.977584
  H            1.523167        3.570978        2.089735
  H            0.261110        3.012437        2.829892
  O           -2.531438        5.348997        5.904051
  H           -2.889759        6.078576        5.338426
  H           -2.178174        5.808315        6.707073
  O            5.088840        4.721725        8.499406
  H            5.470613        5.630070        8.400559
  H            5.875755        4.120577        8.499966
  O            0.142802       -0.149580        5.906580
  H           -0.560558        0.234443        6.488319
  H            0.554675       -0.864501        6.454176
  O           -5.622723        1.406509        0.418048
  H           -4.643705        1.291417        0.512332
  H           -5.993267        1.097622        1.282860
  O           -3.002486       -5.221527        6.250203
  H           -2.594932       -4.810146        7.053493
  H           -3.414318       -4.462963        5.764828
  O           -2.847070        1.528728        8.267310
  H           -2.088934        1.670194        8.888461
  H           -3.335630        0.754335        8.644454
  O           -3.046608        4.470264        8.154961
  H           -2.561430        3.767583        8.656412
  H           -3.171146        5.201824        8.810646
