 xtb: 6.7.1 (edcfbbe)
          06092517543D

 34 26  0     0  0            999 V2000
   -0.1729   -0.9498    0.7827 C   0  0  0  0  0  0  0  0  0  0  0  0
   -0.3802   -0.7078    2.2925 C   0  0  0  0  0  0  0  0  0  0  0  0
    0.2082   -1.5113    3.0662 O   0  0  0  0  0  0  0  0  0  0  0  0
   -1.1089    0.2308    2.6589 O   0  0  0  0  0  0  0  0  0  0  0  0
   -0.6875    0.1921   -0.0739 C   0  0  0  0  0  0  0  0  0  0  0  0
   -0.6193   -0.1653   -1.5064 N   0  0  0  0  0  0  0  0  0  0  0  0
    0.8938   -1.1055    0.6263 H   0  0  0  0  0  0  0  0  0  0  0  0
   -0.6987   -1.8778    0.5520 H   0  0  0  0  0  0  0  0  0  0  0  0
   -1.7116    0.4237    0.2215 H   0  0  0  0  0  0  0  0  0  0  0  0
   -0.0790    1.0770    0.1140 H   0  0  0  0  0  0  0  0  0  0  0  0
   -1.3095   -0.9028   -1.7411 H   0  0  0  0  0  0  0  0  0  0  0  0
    0.3424   -0.5556   -1.7272 H   0  0  0  0  0  0  0  0  0  0  0  0
   -0.7925    0.6538   -2.0896 H   0  0  0  0  0  0  0  0  0  0  0  0
    1.7716   -1.3093   -1.9571 O   0  0  0  0  0  0  0  0  0  0  0  0
    1.6745   -2.1227   -1.4162 H   0  0  0  0  0  0  0  0  0  0  0  0
    2.0857   -1.6257   -2.8116 H   0  0  0  0  0  0  0  0  0  0  0  0
   -2.4981   -2.0345   -2.5302 O   0  0  0  0  0  0  0  0  0  0  0  0
   -3.4336   -1.8109   -2.5081 H   0  0  0  0  0  0  0  0  0  0  0  0
   -2.2759   -2.2635   -3.4393 H   0  0  0  0  0  0  0  0  0  0  0  0
    1.3269   -3.6647   -0.6570 O   0  0  0  0  0  0  0  0  0  0  0  0
    1.5901   -3.6086    0.2782 H   0  0  0  0  0  0  0  0  0  0  0  0
    0.3541   -3.7422   -0.6425 H   0  0  0  0  0  0  0  0  0  0  0  0
    1.7788   -3.4117    2.0863 O   0  0  0  0  0  0  0  0  0  0  0  0
    1.5526   -4.1853    2.6118 H   0  0  0  0  0  0  0  0  0  0  0  0
    1.2069   -2.6810    2.4435 H   0  0  0  0  0  0  0  0  0  0  0  0
    2.7852   -3.8689   -3.1050 O   0  0  0  0  0  0  0  0  0  0  0  0
    3.6818   -4.1637   -2.9263 H   0  0  0  0  0  0  0  0  0  0  0  0
    2.2875   -4.0151   -2.2838 H   0  0  0  0  0  0  0  0  0  0  0  0
    4.4822   -2.8483    2.5976 O   0  0  0  0  0  0  0  0  0  0  0  0
    3.5547   -3.0463    2.3682 H   0  0  0  0  0  0  0  0  0  0  0  0
    4.4631   -2.0040    3.0571 H   0  0  0  0  0  0  0  0  0  0  0  0
   -1.4475   -3.7044   -0.5398 O   0  0  0  0  0  0  0  0  0  0  0  0
   -1.8608   -3.2062   -1.2688 H   0  0  0  0  0  0  0  0  0  0  0  0
   -1.9982   -4.4733   -0.3739 H   0  0  0  0  0  0  0  0  0  0  0  0
  1  2  1  0  0  0  0
  2  3  4  0  0  0  0
  2  4  2  0  0  0  0
  1  5  1  0  0  0  0
  5  6  1  0  0  0  0
  1  7  1  0  0  0  0
  1  8  1  0  0  0  0
  5  9  1  0  0  0  0
  5 10  1  0  0  0  0
  6 11  1  0  0  0  0
  6 12  1  0  0  0  0
  6 13  1  0  0  0  0
 14 15  1  0  0  0  0
 14 16  1  0  0  0  0
 17 18  1  0  0  0  0
 17 19  1  0  0  0  0
 20 21  1  0  0  0  0
 20 22  1  0  0  0  0
 23 24  1  0  0  0  0
 23 25  1  0  0  0  0
 26 27  1  0  0  0  0
 26 28  1  0  0  0  0
 29 30  1  0  0  0  0
 29 31  1  0  0  0  0
 32 33  1  0  0  0  0
 32 34  1  0  0  0  0
M  END
