 xtb: 6.7.1 (edcfbbe)
          06092517543D

 34 26  0     0  0            999 V2000
    0.1515   -0.8482    0.9575 C   0  0  0  0  0  0  0  0  0  0  0  0
   -0.3356   -0.6228    2.4007 C   0  0  0  0  0  0  0  0  0  0  0  0
   -0.7024   -1.6650    3.0239 O   0  0  0  0  0  0  0  0  0  0  0  0
   -0.3293    0.5217    2.8754 O   0  0  0  0  0  0  0  0  0  0  0  0
   -0.2149    0.2838    0.0170 C   0  0  0  0  0  0  0  0  0  0  0  0
    0.3263   -0.0214   -1.3264 N   0  0  0  0  0  0  0  0  0  0  0  0
    1.2365   -0.9609    1.0256 H   0  0  0  0  0  0  0  0  0  0  0  0
   -0.2731   -1.7848    0.6042 H   0  0  0  0  0  0  0  0  0  0  0  0
   -1.3010    0.3646   -0.0485 H   0  0  0  0  0  0  0  0  0  0  0  0
    0.1841    1.2225    0.4014 H   0  0  0  0  0  0  0  0  0  0  0  0
   -0.1058   -0.9320   -1.6549 H   0  0  0  0  0  0  0  0  0  0  0  0
    1.3400   -0.1501   -1.2712 H   0  0  0  0  0  0  0  0  0  0  0  0
    0.0987    0.7192   -1.9921 H   0  0  0  0  0  0  0  0  0  0  0  0
   -3.0618   -1.1957   -0.6130 O   0  0  0  0  0  0  0  0  0  0  0  0
   -3.0336   -1.7444    0.1829 H   0  0  0  0  0  0  0  0  0  0  0  0
   -2.4275   -1.6125   -1.2266 H   0  0  0  0  0  0  0  0  0  0  0  0
    3.1120   -2.3081    1.2220 O   0  0  0  0  0  0  0  0  0  0  0  0
    2.4134   -2.9071    1.5566 H   0  0  0  0  0  0  0  0  0  0  0  0
    3.8475   -2.3928    1.8334 H   0  0  0  0  0  0  0  0  0  0  0  0
   -1.0209   -3.4358   -4.5515 O   0  0  0  0  0  0  0  0  0  0  0  0
   -0.8572   -2.9015   -5.3347 H   0  0  0  0  0  0  0  0  0  0  0  0
   -1.7990   -3.9733   -4.7269 H   0  0  0  0  0  0  0  0  0  0  0  0
    0.9538   -3.7585    2.1667 O   0  0  0  0  0  0  0  0  0  0  0  0
    0.4489   -4.0272    1.3749 H   0  0  0  0  0  0  0  0  0  0  0  0
    0.4034   -3.0755    2.5945 H   0  0  0  0  0  0  0  0  0  0  0  0
   -0.7989   -4.2599   -0.0033 O   0  0  0  0  0  0  0  0  0  0  0  0
   -1.5087   -3.8641    0.5437 H   0  0  0  0  0  0  0  0  0  0  0  0
   -1.0595   -5.1694   -0.1758 H   0  0  0  0  0  0  0  0  0  0  0  0
   -2.5776   -2.9892    1.6373 O   0  0  0  0  0  0  0  0  0  0  0  0
   -1.9256   -2.4995    2.1891 H   0  0  0  0  0  0  0  0  0  0  0  0
   -3.1894   -3.4021    2.2534 H   0  0  0  0  0  0  0  0  0  0  0  0
   -0.8991   -2.3338   -2.0125 O   0  0  0  0  0  0  0  0  0  0  0  0
   -0.7154   -3.0564   -1.3854 H   0  0  0  0  0  0  0  0  0  0  0  0
   -0.8682   -2.7203   -2.9057 H   0  0  0  0  0  0  0  0  0  0  0  0
  1  2  1  0  0  0  0
  2  3  4  0  0  0  0
  2  4  2  0  0  0  0
  1  5  1  0  0  0  0
  5  6  1  0  0  0  0
  1  7  1  0  0  0  0
  1  8  1  0  0  0  0
  5  9  1  0  0  0  0
  5 10  1  0  0  0  0
  6 11  1  0  0  0  0
  6 12  1  0  0  0  0
  6 13  1  0  0  0  0
 14 15  1  0  0  0  0
 14 16  1  0  0  0  0
 17 18  1  0  0  0  0
 17 19  1  0  0  0  0
 20 21  1  0  0  0  0
 20 22  1  0  0  0  0
 23 24  1  0  0  0  0
 23 25  1  0  0  0  0
 26 27  1  0  0  0  0
 26 28  1  0  0  0  0
 29 30  1  0  0  0  0
 29 31  1  0  0  0  0
 32 33  1  0  0  0  0
 32 34  1  0  0  0  0
M  END
