 xtb: 6.7.1 (edcfbbe)
          06092518043D

 37 29  0     0  0            999 V2000
    0.0485   -0.2554    2.1172 N   0  0  0  0  0  0  0  0  0  0  0  0
   -0.3419   -0.4157    0.7033 C   0  0  0  0  0  0  0  0  0  0  0  0
   -0.2766    0.9189   -0.0305 C   0  0  0  0  0  0  0  0  0  0  0  0
   -0.7883    0.7758   -1.4598 C   0  0  0  0  0  0  0  0  0  0  0  0
    0.1622   -0.0416   -2.3573 C   0  0  0  0  0  0  0  0  0  0  0  0
    1.3925    0.0830   -2.1777 O   0  0  0  0  0  0  0  0  0  0  0  0
   -0.3558   -0.7706   -3.2380 O   0  0  0  0  0  0  0  0  0  0  0  0
    0.9744    0.1722    2.1724 H   0  0  0  0  0  0  0  0  0  0  0  0
   -0.6335    0.3664    2.6074 H   0  0  0  0  0  0  0  0  0  0  0  0
   -1.3555   -0.8153    0.6505 H   0  0  0  0  0  0  0  0  0  0  0  0
    0.3289   -1.1217    0.2130 H   0  0  0  0  0  0  0  0  0  0  0  0
    0.7567    1.2694   -0.0853 H   0  0  0  0  0  0  0  0  0  0  0  0
   -0.8812    1.6609    0.4923 H   0  0  0  0  0  0  0  0  0  0  0  0
   -1.7714    0.3066   -1.4849 H   0  0  0  0  0  0  0  0  0  0  0  0
   -0.8672    1.7574   -1.9351 H   0  0  0  0  0  0  0  0  0  0  0  0
    0.0722   -1.1874    2.5997 H   0  0  0  0  0  0  0  0  0  0  0  0
   -2.7995   -1.8258   -2.8601 O   0  0  0  0  0  0  0  0  0  0  0  0
   -1.9216   -1.4168   -3.0375 H   0  0  0  0  0  0  0  0  0  0  0  0
   -2.8410   -2.6046   -3.4234 H   0  0  0  0  0  0  0  0  0  0  0  0
   -1.7009    1.3876    3.4882 O   0  0  0  0  0  0  0  0  0  0  0  0
   -1.4678    1.5348    4.4107 H   0  0  0  0  0  0  0  0  0  0  0  0
   -2.6355    1.1629    3.4602 H   0  0  0  0  0  0  0  0  0  0  0  0
    3.5512   -1.5035   -2.8262 O   0  0  0  0  0  0  0  0  0  0  0  0
    4.1155   -0.9092   -3.3304 H   0  0  0  0  0  0  0  0  0  0  0  0
    2.7466   -0.9841   -2.6221 H   0  0  0  0  0  0  0  0  0  0  0  0
    0.2636   -2.7367    3.2703 O   0  0  0  0  0  0  0  0  0  0  0  0
    0.4242   -3.2764    2.4759 H   0  0  0  0  0  0  0  0  0  0  0  0
    1.0393   -2.8451    3.8303 H   0  0  0  0  0  0  0  0  0  0  0  0
   -2.0737   -3.3690    4.7704 O   0  0  0  0  0  0  0  0  0  0  0  0
   -1.2675   -3.1621    4.2651 H   0  0  0  0  0  0  0  0  0  0  0  0
   -2.7618   -3.5182    4.1156 H   0  0  0  0  0  0  0  0  0  0  0  0
   -3.3334   -1.6579   -0.1162 O   0  0  0  0  0  0  0  0  0  0  0  0
   -3.1448   -1.7677   -1.0638 H   0  0  0  0  0  0  0  0  0  0  0  0
   -4.2851   -1.5344   -0.0477 H   0  0  0  0  0  0  0  0  0  0  0  0
    0.9480   -4.0627    0.9401 O   0  0  0  0  0  0  0  0  0  0  0  0
    1.8308   -4.1531    0.5697 H   0  0  0  0  0  0  0  0  0  0  0  0
    0.3412   -4.5232    0.3547 H   0  0  0  0  0  0  0  0  0  0  0  0
  1  2  1  0  0  0  0
  2  3  1  0  0  0  0
  3  4  1  0  0  0  0
  4  5  1  0  0  0  0
  5  6  4  0  0  0  0
  5  7  4  0  0  0  0
  1  8  1  0  0  0  0
  1  9  1  0  0  0  0
  2 10  1  0  0  0  0
  2 11  1  0  0  0  0
  3 12  1  0  0  0  0
  3 13  1  0  0  0  0
  4 14  1  0  0  0  0
  4 15  1  0  0  0  0
  1 16  1  0  0  0  0
 17 18  1  0  0  0  0
 17 19  1  0  0  0  0
 20 21  1  0  0  0  0
 20 22  1  0  0  0  0
 23 24  1  0  0  0  0
 23 25  1  0  0  0  0
 26 27  1  0  0  0  0
 26 28  1  0  0  0  0
 29 30  1  0  0  0  0
 29 31  1  0  0  0  0
 32 33  1  0  0  0  0
 32 34  1  0  0  0  0
 35 36  1  0  0  0  0
 35 37  1  0  0  0  0
M  END
