          25
  Built with Packmol                                             
  C            0.000717       -0.522558        0.678044
  C            0.000155        0.093927        2.050368
  O           -0.000195       -0.630131        3.032262
  O           -0.000797        1.431559        2.216433
  C            0.000989        0.525311       -0.443260
  N           -0.000301       -0.116591       -1.756652
  H            0.902593       -1.162928        0.578888
  H           -0.902640       -1.160238        0.579017
  H           -0.902002        1.167413       -0.351037
  H            0.903666        1.168949       -0.351720
  H           -0.857069       -0.705532       -1.867523
  H            0.853228       -0.710069       -1.867795
  H            0.001656        0.620887       -2.497026
  O            0.842444       -3.467522       -4.626309
  H            0.399841       -3.733486       -5.471280
  H            0.244537       -3.809334       -3.914772
  O           -2.973338        2.694001        5.463295
  H           -2.158064        2.272033        5.091971
  H           -3.247833        3.351265        4.775349
  O           -2.841355       -3.809654        5.091272
  H           -1.869440       -3.674489        4.958142
  H           -3.253826       -3.490515        4.249470
  O           -3.215049        1.376496        2.728746
  H           -2.641923        0.572570        2.652323
  H           -2.650877        2.116500        2.390046
