          25
  Built with Packmol                                             
  C            0.000717       -0.522558        0.678044
  C            0.000155        0.093927        2.050368
  O           -0.000195       -0.630131        3.032262
  O           -0.000797        1.431559        2.216433
  C            0.000989        0.525311       -0.443260
  N           -0.000301       -0.116591       -1.756652
  H            0.902593       -1.162928        0.578888
  H           -0.902640       -1.160238        0.579017
  H           -0.902002        1.167413       -0.351037
  H            0.903666        1.168949       -0.351720
  H           -0.857069       -0.705532       -1.867523
  H            0.853228       -0.710069       -1.867795
  H            0.001656        0.620887       -2.497026
  O            3.280180       -3.799860        5.320370
  H            3.249934       -3.819028        4.330760
  H            2.690206       -3.045406        5.572051
  O            3.164808        1.193257        4.067873
  H            2.458441        1.202529        3.373920
  H            2.676720        1.045660        4.916753
  O            2.522198        3.839535        4.432535
  H            1.641906        3.757487        3.986480
  H            2.323189        3.729427        5.396322
  O            0.381100       -3.150311        4.094677
  H            0.155260       -3.781122        4.823845
  H            0.590616       -3.730926        3.320338
