          25
  Built with Packmol                                             
  C            0.000717       -0.522558        0.678044
  C            0.000155        0.093927        2.050368
  O           -0.000195       -0.630131        3.032262
  O           -0.000797        1.431559        2.216433
  C            0.000989        0.525311       -0.443260
  N           -0.000301       -0.116591       -1.756652
  H            0.902593       -1.162928        0.578888
  H           -0.902640       -1.160238        0.579017
  H           -0.902002        1.167413       -0.351037
  H            0.903666        1.168949       -0.351720
  H           -0.857069       -0.705532       -1.867523
  H            0.853228       -0.710069       -1.867795
  H            0.001656        0.620887       -2.497026
  O           -2.646124        1.417754        3.506413
  H           -3.197929        1.552098        4.317630
  H           -3.201565        1.771980        2.767073
  O           -2.740875       -1.143237        4.579925
  H           -1.844937       -1.295954        4.973097
  H           -3.330656       -0.986661        5.359832
  O           -1.690966        3.610117        5.425184
  H           -0.820112        3.142240        5.482756
  H           -1.762859        3.884666        4.476465
  O           -2.671601       -3.903835        4.637977
  H           -3.167417       -3.735049        5.478387
  H           -3.337966       -3.750465        3.921704
