          25
  Built with Packmol                                             
  C            0.000717       -0.522558        0.678044
  C            0.000155        0.093927        2.050368
  O           -0.000195       -0.630131        3.032262
  O           -0.000797        1.431559        2.216433
  C            0.000989        0.525311       -0.443260
  N           -0.000301       -0.116591       -1.756652
  H            0.902593       -1.162928        0.578888
  H           -0.902640       -1.160238        0.579017
  H           -0.902002        1.167413       -0.351037
  H            0.903666        1.168949       -0.351720
  H           -0.857069       -0.705532       -1.867523
  H            0.853228       -0.710069       -1.867795
  H            0.001656        0.620887       -2.497026
  O           -2.252106        3.878440        5.407849
  H           -3.233073        3.755164        5.463680
  H           -2.046416        3.797441        4.442581
  O           -2.716973       -2.035714        4.737412
  H           -3.028049       -2.975291        4.705199
  H           -3.250947       -1.622275        5.461673
  O           -3.258498        3.692897        0.978218
  H           -3.289173        3.121316        0.170156
  H           -2.293396        3.850938        1.133830
  O            2.306046       -2.607715        5.478739
  H            2.835786       -2.634900        4.642529
  H            1.734988       -3.415655        5.437042
