          25
  Built with Packmol                                             
  C            0.000717       -0.522558        0.678044
  C            0.000155        0.093927        2.050368
  O           -0.000195       -0.630131        3.032262
  O           -0.000797        1.431559        2.216433
  C            0.000989        0.525311       -0.443260
  N           -0.000301       -0.116591       -1.756652
  H            0.902593       -1.162928        0.578888
  H           -0.902640       -1.160238        0.579017
  H           -0.902002        1.167413       -0.351037
  H            0.903666        1.168949       -0.351720
  H           -0.857069       -0.705532       -1.867523
  H            0.853228       -0.710069       -1.867795
  H            0.001656        0.620887       -2.497026
  O           -2.747233        2.608921        4.378868
  H           -1.860228        3.049094        4.369819
  H           -3.285977        3.149384        5.009953
  O           -3.267295        3.143171       -4.772824
  H           -2.367818        2.730048       -4.802487
  H           -3.245928        3.835222       -5.480795
  O           -2.586668       -3.296074        0.968051
  H           -3.336178       -3.858421        0.647721
  H           -2.775538       -3.155351        1.929892
  O           -3.010148       -1.562845        5.244890
  H           -3.274878       -2.486025        5.486275
  H           -2.449851       -1.669067        4.435324
