          25
  Built with Packmol                                             
  C            0.000717       -0.522558        0.678044
  C            0.000155        0.093927        2.050368
  O           -0.000195       -0.630131        3.032262
  O           -0.000797        1.431559        2.216433
  C            0.000989        0.525311       -0.443260
  N           -0.000301       -0.116591       -1.756652
  H            0.902593       -1.162928        0.578888
  H           -0.902640       -1.160238        0.579017
  H           -0.902002        1.167413       -0.351037
  H            0.903666        1.168949       -0.351720
  H           -0.857069       -0.705532       -1.867523
  H            0.853228       -0.710069       -1.867795
  H            0.001656        0.620887       -2.497026
  O            2.269517       -3.609806        3.374035
  H            3.252405       -3.501276        3.321481
  H            1.918597       -3.054182        2.633259
  O            2.622261       -0.133444        3.834297
  H            2.470631        0.605202        3.192409
  H            2.343205        0.236988        4.709238
  O            2.978123        2.928273        4.559882
  H            3.218797        3.884060        4.464185
  H            3.300848        2.680350        5.462654
  O            0.235085        3.149529       -4.146883
  H           -0.594042        3.683335       -4.237495
  H            0.902925        3.787294       -3.789309
