 xtb: 6.7.1 (edcfbbe)
          06092517583D

 34 26  0     0  0            999 V2000
    2.1127    0.1402    0.4829 H   0  0  0  0  0  0  0  0  0  0  0  0
    1.1618   -0.2581    0.1305 C   0  0  0  0  0  0  0  0  0  0  0  0
    1.1690    1.3177   -1.2188 H   0  0  0  0  0  0  0  0  0  0  0  0
    1.3564   -1.0980   -0.5368 H   0  0  0  0  0  0  0  0  0  0  0  0
    0.4664    0.7946   -0.6403 N   0  0  0  0  0  0  0  0  0  0  0  0
    0.5929   -1.7790    1.5676 H   0  0  0  0  0  0  0  0  0  0  0  0
    0.3546   -0.7422    1.3310 C   0  0  0  0  0  0  0  0  0  0  0  0
    0.9933    1.2454    2.5359 O   0  0  0  0  0  0  0  0  0  0  0  0
    0.5753    0.0682    2.6194 C   0  0  0  0  0  0  0  0  0  0  0  0
    0.0145    1.4965   -0.0144 H   0  0  0  0  0  0  0  0  0  0  0  0
    0.2960   -0.4947    3.7047 O   0  0  0  0  0  0  0  0  0  0  0  0
   -0.2547    0.3861   -1.2345 H   0  0  0  0  0  0  0  0  0  0  0  0
   -0.7170   -0.7013    1.1255 H   0  0  0  0  0  0  0  0  0  0  0  0
    1.4062   -2.4509   -2.3117 O   0  0  0  0  0  0  0  0  0  0  0  0
    0.9087   -3.2719   -2.3570 H   0  0  0  0  0  0  0  0  0  0  0  0
    2.1785   -2.5551   -2.8755 H   0  0  0  0  0  0  0  0  0  0  0  0
   -0.7382    2.6860    1.0137 O   0  0  0  0  0  0  0  0  0  0  0  0
   -0.1855    2.3700    1.7501 H   0  0  0  0  0  0  0  0  0  0  0  0
   -0.5876    3.6328    0.9327 H   0  0  0  0  0  0  0  0  0  0  0  0
    3.0635    2.3896    1.0919 O   0  0  0  0  0  0  0  0  0  0  0  0
    3.4927    3.0560    1.6341 H   0  0  0  0  0  0  0  0  0  0  0  0
    2.3557    2.0073    1.6425 H   0  0  0  0  0  0  0  0  0  0  0  0
    0.0514   -3.2405    3.6668 O   0  0  0  0  0  0  0  0  0  0  0  0
    0.0951   -2.2661    3.7418 H   0  0  0  0  0  0  0  0  0  0  0  0
    0.1902   -3.5793    4.5567 H   0  0  0  0  0  0  0  0  0  0  0  0
    0.4595    0.8690    6.1098 O   0  0  0  0  0  0  0  0  0  0  0  0
    0.4714    0.4175    5.2418 H   0  0  0  0  0  0  0  0  0  0  0  0
   -0.4170    0.7039    6.4726 H   0  0  0  0  0  0  0  0  0  0  0  0
    2.5243    2.2593   -1.6355 O   0  0  0  0  0  0  0  0  0  0  0  0
    3.2860    1.8951   -2.0947 H   0  0  0  0  0  0  0  0  0  0  0  0
    2.8064    2.4301   -0.7186 H   0  0  0  0  0  0  0  0  0  0  0  0
   -1.1362    0.9115   -5.7827 O   0  0  0  0  0  0  0  0  0  0  0  0
   -0.6682    1.7365   -5.6168 H   0  0  0  0  0  0  0  0  0  0  0  0
   -0.4746    0.2124   -5.8096 H   0  0  0  0  0  0  0  0  0  0  0  0
  1  2  1  0  0  0  0
  2  4  1  0  0  0  0
  2  5  1  0  0  0  0
  3  5  1  0  0  0  0
  2  7  1  0  0  0  0
  6  7  1  0  0  0  0
  7  9  1  0  0  0  0
  8  9  4  0  0  0  0
  5 10  1  0  0  0  0
  9 11  4  0  0  0  0
  5 12  1  0  0  0  0
  7 13  1  0  0  0  0
 14 15  1  0  0  0  0
 14 16  1  0  0  0  0
 17 18  1  0  0  0  0
 17 19  1  0  0  0  0
 20 21  1  0  0  0  0
 20 22  1  0  0  0  0
 23 24  1  0  0  0  0
 23 25  1  0  0  0  0
 26 27  1  0  0  0  0
 26 28  1  0  0  0  0
 29 30  1  0  0  0  0
 29 31  1  0  0  0  0
 32 33  1  0  0  0  0
 32 34  1  0  0  0  0
M  END
