          37
  Built with Packmol                                             
  N           -0.443767       -0.471812        1.745205
  C            0.693510        0.104360        1.026899
  C            0.252325        0.999585       -0.146245
  C           -0.573823        0.306802       -1.244857
  C            0.172762       -0.788129       -1.957711
  O            0.408222       -0.687945       -3.151027
  O            0.546344       -1.903284       -1.303739
  H           -0.087472       -1.004114        2.571270
  H           -1.081184        0.285863        2.081386
  H            1.280979        0.732860        1.731174
  H            1.368045       -0.703734        0.677139
  H            1.158667        1.443130       -0.611175
  H           -0.355788        1.834342        0.265274
  H           -1.517364       -0.100802       -0.829235
  H           -0.852734        1.086771       -1.985872
  H           -0.968720       -1.133893        1.131516
  O            1.146672        2.998413        4.355264
  H            1.661068        3.843863        4.320315
  H            0.296584        3.205873        3.891664
  O           -3.282868        2.294887        2.012973
  H           -2.578559        2.965217        2.200636
  H           -3.447037        1.856562        2.885632
  O            1.835032       -2.392150        3.955228
  H            2.207937       -3.295891        3.797729
  H            2.628520       -1.819067        4.105444
  O           -2.884025       -0.601756        4.315755
  H           -3.419941        0.074304        4.801910
  H           -3.268050       -0.613260        3.403063
  O           -1.686701        1.491793        5.395306
  H           -1.909628        1.626564        4.439926
  H           -1.365947        0.556274        5.445649
  O            2.798949       -0.455920        5.821473
  H            3.544594        0.125039        5.526329
  H            1.993876        0.115575        5.744894
  O            3.137678        1.664933        3.719191
  H            2.279276        1.186482        3.841017
  H            3.219390        2.236650        4.523601
