 xtb: 6.7.1 (edcfbbe)
          06092518063D

 37 29  0     0  0            999 V2000
   -0.1576   -0.4775    1.7798 N   0  0  0  0  0  0  0  0  0  0  0  0
    1.0240    0.1553    1.1707 C   0  0  0  0  0  0  0  0  0  0  0  0
    0.6257    1.1935    0.1216 C   0  0  0  0  0  0  0  0  0  0  0  0
   -0.4903    0.7327   -0.8282 C   0  0  0  0  0  0  0  0  0  0  0  0
   -0.2997   -0.7016   -1.3814 C   0  0  0  0  0  0  0  0  0  0  0  0
    0.1525   -0.8369   -2.5331 O   0  0  0  0  0  0  0  0  0  0  0  0
   -0.6423   -1.6424   -0.6187 O   0  0  0  0  0  0  0  0  0  0  0  0
    0.1249   -1.1223    2.5561 H   0  0  0  0  0  0  0  0  0  0  0  0
   -0.8209    0.2303    2.1459 H   0  0  0  0  0  0  0  0  0  0  0  0
    1.6274    0.6308    1.9453 H   0  0  0  0  0  0  0  0  0  0  0  0
    1.6156   -0.6254    0.6898 H   0  0  0  0  0  0  0  0  0  0  0  0
    1.5104    1.4358   -0.4683 H   0  0  0  0  0  0  0  0  0  0  0  0
    0.2904    2.1074    0.6133 H   0  0  0  0  0  0  0  0  0  0  0  0
   -1.4551    0.7483   -0.3192 H   0  0  0  0  0  0  0  0  0  0  0  0
   -0.5384    1.4066   -1.6852 H   0  0  0  0  0  0  0  0  0  0  0  0
   -0.6045   -1.0379    1.0187 H   0  0  0  0  0  0  0  0  0  0  0  0
    1.4924    3.4408    4.7525 O   0  0  0  0  0  0  0  0  0  0  0  0
    1.3508    4.2975    4.3403 H   0  0  0  0  0  0  0  0  0  0  0  0
    0.6005    3.0836    4.9460 H   0  0  0  0  0  0  0  0  0  0  0  0
   -2.1043    1.2719    2.8383 O   0  0  0  0  0  0  0  0  0  0  0  0
   -2.5259    1.9542    2.3091 H   0  0  0  0  0  0  0  0  0  0  0  0
   -2.8091    0.6344    3.0680 H   0  0  0  0  0  0  0  0  0  0  0  0
    0.6661   -2.1892    3.7566 O   0  0  0  0  0  0  0  0  0  0  0  0
    0.9559   -3.0460    3.4341 H   0  0  0  0  0  0  0  0  0  0  0  0
    1.4567   -1.7613    4.1515 H   0  0  0  0  0  0  0  0  0  0  0  0
   -4.0767   -0.5800    3.3485 O   0  0  0  0  0  0  0  0  0  0  0  0
   -3.9550   -1.2274    4.0503 H   0  0  0  0  0  0  0  0  0  0  0  0
   -4.4903   -1.0355    2.6094 H   0  0  0  0  0  0  0  0  0  0  0  0
   -1.0015    2.3822    5.1491 O   0  0  0  0  0  0  0  0  0  0  0  0
   -1.3632    1.9905    4.3304 H   0  0  0  0  0  0  0  0  0  0  0  0
   -1.0941    1.7103    5.8306 H   0  0  0  0  0  0  0  0  0  0  0  0
    2.8547   -0.9174    4.7428 O   0  0  0  0  0  0  0  0  0  0  0  0
    2.9103   -0.0755    4.2454 H   0  0  0  0  0  0  0  0  0  0  0  0
    2.9078   -0.6808    5.6732 H   0  0  0  0  0  0  0  0  0  0  0  0
    2.9412    1.5146    3.4731 O   0  0  0  0  0  0  0  0  0  0  0  0
    2.4319    2.1934    3.9649 H   0  0  0  0  0  0  0  0  0  0  0  0
    3.7965    1.9072    3.2817 H   0  0  0  0  0  0  0  0  0  0  0  0
  1  2  1  0  0  0  0
  2  3  1  0  0  0  0
  3  4  1  0  0  0  0
  4  5  1  0  0  0  0
  5  6  2  0  0  0  0
  5  7  4  0  0  0  0
  1  8  1  0  0  0  0
  1  9  1  0  0  0  0
  2 10  1  0  0  0  0
  2 11  1  0  0  0  0
  3 12  1  0  0  0  0
  3 13  1  0  0  0  0
  4 14  1  0  0  0  0
  4 15  1  0  0  0  0
  1 16  1  0  0  0  0
 17 18  1  0  0  0  0
 17 19  1  0  0  0  0
 20 21  1  0  0  0  0
 20 22  1  0  0  0  0
 23 24  1  0  0  0  0
 23 25  1  0  0  0  0
 26 27  1  0  0  0  0
 26 28  1  0  0  0  0
 29 30  1  0  0  0  0
 29 31  1  0  0  0  0
 32 33  1  0  0  0  0
 32 34  1  0  0  0  0
 35 36  1  0  0  0  0
 35 37  1  0  0  0  0
M  END
