 xtb: 6.7.1 (edcfbbe)
          06092518083D

 37 29  0     0  0            999 V2000
    0.5400   -1.5861    1.4221 N   0  0  0  0  0  0  0  0  0  0  0  0
    0.1426   -0.1697    1.4698 C   0  0  0  0  0  0  0  0  0  0  0  0
   -0.9887    0.1219    0.4848 C   0  0  0  0  0  0  0  0  0  0  0  0
   -0.5339    0.2504   -0.9744 C   0  0  0  0  0  0  0  0  0  0  0  0
   -0.4036   -1.0626   -1.7655 C   0  0  0  0  0  0  0  0  0  0  0  0
   -0.5398   -0.9925   -3.0050 O   0  0  0  0  0  0  0  0  0  0  0  0
   -0.1553   -2.1242   -1.1451 O   0  0  0  0  0  0  0  0  0  0  0  0
   -0.1143   -2.1893    1.9585 H   0  0  0  0  0  0  0  0  0  0  0  0
    0.4844   -1.9078    0.4301 H   0  0  0  0  0  0  0  0  0  0  0  0
   -0.1844    0.0752    2.4805 H   0  0  0  0  0  0  0  0  0  0  0  0
    1.0035    0.4534    1.2232 H   0  0  0  0  0  0  0  0  0  0  0  0
   -1.4559    1.0654    0.7674 H   0  0  0  0  0  0  0  0  0  0  0  0
   -1.7471   -0.6596    0.5541 H   0  0  0  0  0  0  0  0  0  0  0  0
    0.4409    0.7420   -1.0335 H   0  0  0  0  0  0  0  0  0  0  0  0
   -1.2346    0.8670   -1.5410 H   0  0  0  0  0  0  0  0  0  0  0  0
    1.4989   -1.7469    1.8031 H   0  0  0  0  0  0  0  0  0  0  0  0
   -0.2475   -3.2001   -4.5691 O   0  0  0  0  0  0  0  0  0  0  0  0
   -0.3475   -2.4257   -3.9706 H   0  0  0  0  0  0  0  0  0  0  0  0
   -0.3909   -2.8597   -5.4574 H   0  0  0  0  0  0  0  0  0  0  0  0
    2.8900   -2.2682    2.6486 O   0  0  0  0  0  0  0  0  0  0  0  0
    2.5273   -3.1495    2.8820 H   0  0  0  0  0  0  0  0  0  0  0  0
    3.1841   -1.8674    3.4712 H   0  0  0  0  0  0  0  0  0  0  0  0
    1.5016   -4.5685    3.1235 O   0  0  0  0  0  0  0  0  0  0  0  0
    0.5785   -4.2736    3.0104 H   0  0  0  0  0  0  0  0  0  0  0  0
    1.6292   -5.2999    2.5137 H   0  0  0  0  0  0  0  0  0  0  0  0
   -1.0513   -3.5338    2.6145 O   0  0  0  0  0  0  0  0  0  0  0  0
   -1.4047   -3.7878    1.7368 H   0  0  0  0  0  0  0  0  0  0  0  0
   -1.8024   -3.4664    3.2102 H   0  0  0  0  0  0  0  0  0  0  0  0
    1.4716   -5.3837   -3.9466 O   0  0  0  0  0  0  0  0  0  0  0  0
    0.8123   -4.7039   -4.1630 H   0  0  0  0  0  0  0  0  0  0  0  0
    2.2431   -4.9069   -3.6237 H   0  0  0  0  0  0  0  0  0  0  0  0
    0.2564   -1.8071    7.9043 O   0  0  0  0  0  0  0  0  0  0  0  0
    0.3334   -2.2481    8.7554 H   0  0  0  0  0  0  0  0  0  0  0  0
    0.5095   -2.4478    7.2310 H   0  0  0  0  0  0  0  0  0  0  0  0
   -1.8466   -3.9362    0.0545 O   0  0  0  0  0  0  0  0  0  0  0  0
   -1.2703   -3.3344   -0.4506 H   0  0  0  0  0  0  0  0  0  0  0  0
   -1.8609   -4.7617   -0.4378 H   0  0  0  0  0  0  0  0  0  0  0  0
  1  2  1  0  0  0  0
  2  3  1  0  0  0  0
  3  4  1  0  0  0  0
  4  5  1  0  0  0  0
  5  6  4  0  0  0  0
  5  7  4  0  0  0  0
  1  8  1  0  0  0  0
  1  9  1  0  0  0  0
  2 10  1  0  0  0  0
  2 11  1  0  0  0  0
  3 12  1  0  0  0  0
  3 13  1  0  0  0  0
  4 14  1  0  0  0  0
  4 15  1  0  0  0  0
  1 16  1  0  0  0  0
 17 18  1  0  0  0  0
 17 19  1  0  0  0  0
 20 21  1  0  0  0  0
 20 22  1  0  0  0  0
 23 24  1  0  0  0  0
 23 25  1  0  0  0  0
 26 27  1  0  0  0  0
 26 28  1  0  0  0  0
 29 30  1  0  0  0  0
 29 31  1  0  0  0  0
 32 33  1  0  0  0  0
 32 34  1  0  0  0  0
 35 36  1  0  0  0  0
 35 37  1  0  0  0  0
M  END
