          34
  Built with Packmol                                             
  H            1.420531       -0.693439       -0.457594
  C            0.315625       -0.640915       -0.572756
  H            0.379447        0.341256       -2.375102
  H           -0.020204       -1.577267       -1.069783
  N           -0.042833        0.489322       -1.430827
  H           -0.104344       -1.525775        1.342275
  C           -0.356072       -0.581772        0.809877
  O           -0.155039        1.845644        1.277794
  C            0.099005        0.578296        1.654298
  H            0.334594        1.383914       -1.050468
  O            0.669992        0.373338        2.712012
  H           -1.081518        0.548347       -1.533033
  H           -1.459185       -0.540948        0.693308
  O           -2.649022        1.164308       -4.269711
  H           -3.096779        1.097700       -3.388979
  H           -3.139099        1.882620       -4.743489
  O           -2.821335        3.408190        2.309046
  H           -3.343269        2.567444        2.272411
  H           -2.447224        3.428219        3.225699
  O           -3.615139        1.229875       -0.054542
  H           -4.227470        1.984162       -0.246145
  H           -3.101655        1.108156       -0.892475
  O           -3.005432       -3.886964        0.715712
  H           -2.469076       -3.055046        0.744794
  H           -2.500736       -4.527318        1.277709
  O           -2.178142        1.403704        5.793654
  H           -2.864515        0.783021        5.441154
  H           -1.371126        1.214872        5.251730
  O           -1.151628       -1.020101        5.061863
  H           -0.583971       -1.464832        4.383194
  H           -0.518064       -0.737093        5.768344
  O           -1.779825       -3.305270        4.241459
  H           -1.383471       -4.195677        4.416641
  H           -2.153030       -3.023726        5.114422
