          34
  Built with Packmol                                             
  H            1.420531       -0.693439       -0.457594
  C            0.315625       -0.640915       -0.572756
  H            0.379447        0.341256       -2.375102
  H           -0.020204       -1.577267       -1.069783
  N           -0.042833        0.489322       -1.430827
  H           -0.104344       -1.525775        1.342275
  C           -0.356072       -0.581772        0.809877
  O           -0.155039        1.845644        1.277794
  C            0.099005        0.578296        1.654298
  H            0.334594        1.383914       -1.050468
  O            0.669992        0.373338        2.712012
  H           -1.081518        0.548347       -1.533033
  H           -1.459185       -0.540948        0.693308
  O           -2.974367        0.483482        4.154524
  H           -2.863553        1.437177        3.912042
  H           -3.905109        0.267806        3.894110
  O           -1.900098       -2.181051        4.022964
  H           -0.929594       -2.283573        4.190959
  H           -2.195428       -1.502364        4.680822
  O           -2.678553        3.206218       -0.930240
  H           -2.103574        4.005738       -0.826425
  H           -3.454198        3.525115       -1.456824
  O            2.262909        2.648882       -3.109703
  H            2.014065        3.587861       -2.917330
  H            3.210928        2.696286       -3.391884
  O           -3.030104       -3.859752       -0.102904
  H           -3.853009       -3.324981        0.029228
  H           -2.850842       -4.262421        0.783851
  O           -3.946609        0.785568        1.432077
  H           -3.696060        1.245450        0.591634
  H           -3.083382        0.601646        1.881103
  O           -3.419160       -1.546724        1.539074
  H           -2.658649       -2.178170        1.479825
  H           -3.541064       -1.217582        0.613105
