          34
  Built with Packmol                                             
  H            1.420531       -0.693439       -0.457594
  C            0.315625       -0.640915       -0.572756
  H            0.379447        0.341256       -2.375102
  H           -0.020204       -1.577267       -1.069783
  N           -0.042833        0.489322       -1.430827
  H           -0.104344       -1.525775        1.342275
  C           -0.356072       -0.581772        0.809877
  O           -0.155039        1.845644        1.277794
  C            0.099005        0.578296        1.654298
  H            0.334594        1.383914       -1.050468
  O            0.669992        0.373338        2.712012
  H           -1.081518        0.548347       -1.533033
  H           -1.459185       -0.540948        0.693308
  O           -0.192683       -1.774537        4.875450
  H            0.129690       -2.698112        5.029382
  H            0.512356       -1.197708        5.263781
  O           -3.992996       -2.487984       -1.008886
  H           -3.926228       -3.134793       -0.262032
  H           -3.518379       -1.682435       -0.682631
  O           -2.698573       -2.439622        1.722694
  H           -2.119279       -2.636921        0.944168
  H           -3.230042       -1.652181        1.443248
  O           -1.738943       -3.739252        3.863350
  H           -0.934177       -4.313038        3.924445
  H           -2.234302       -4.089192        3.080552
  O           -0.147277        5.218785        2.037382
  H            0.252551        4.950868        1.171952
  H           -0.953591        4.650583        2.124652
  O            1.411777        3.857252       -3.533725
  H            1.993418        3.186543       -3.972422
  H            0.634212        3.946092       -4.140449
  O           -2.382988       -2.021480       -3.780404
  H           -1.930805       -2.899862       -3.848131
  H           -2.771158       -2.011847       -2.869447
