          34
  Built with Packmol                                             
  H            1.420531       -0.693439       -0.457594
  C            0.315625       -0.640915       -0.572756
  H            0.379447        0.341256       -2.375102
  H           -0.020204       -1.577267       -1.069783
  N           -0.042833        0.489322       -1.430827
  H           -0.104344       -1.525775        1.342275
  C           -0.356072       -0.581772        0.809877
  O           -0.155039        1.845644        1.277794
  C            0.099005        0.578296        1.654298
  H            0.334594        1.383914       -1.050468
  O            0.669992        0.373338        2.712012
  H           -1.081518        0.548347       -1.533033
  H           -1.459185       -0.540948        0.693308
  O           -1.283052       -3.876359        1.784905
  H           -1.950101       -3.220168        1.460760
  H           -1.818926       -4.668245        2.042528
  O            0.743507       -5.211622        2.035492
  H            0.135392       -5.481106        1.301881
  H            0.869537       -4.237704        1.908157
  O           -0.059953       -4.253855        4.748468
  H           -0.814110       -4.276030        4.107090
  H            0.676523       -3.817725        4.250465
  O            1.945324       -4.620186       -0.304685
  H            1.141258       -4.044156       -0.256966
  H            2.545309       -4.267550        0.399787
  O           -1.619741       -4.355578       -0.905515
  H           -0.743609       -4.298443       -1.363488
  H           -1.447529       -4.919543       -0.109965
  O            2.453076       -4.060752       -2.584917
  H            1.504790       -4.282194       -2.405120
  H            2.664860       -3.337046       -1.943037
  O            2.341581       -2.468282        3.780766
  H            2.557488       -1.591078        3.375170
  H            2.932272       -2.527266        4.573368
