          34
  Built with Packmol                                             
  H            1.420531       -0.693439       -0.457594
  C            0.315625       -0.640915       -0.572756
  H            0.379447        0.341256       -2.375102
  H           -0.020204       -1.577267       -1.069783
  N           -0.042833        0.489322       -1.430827
  H           -0.104344       -1.525775        1.342275
  C           -0.356072       -0.581772        0.809877
  O           -0.155039        1.845644        1.277794
  C            0.099005        0.578296        1.654298
  H            0.334594        1.383914       -1.050468
  O            0.669992        0.373338        2.712012
  H           -1.081518        0.548347       -1.533033
  H           -1.459185       -0.540948        0.693308
  O            0.003537        2.363363       -5.793717
  H           -0.685682        1.788799       -5.374831
  H            0.318507        1.843295       -6.575341
  O            1.738335        0.341654       -4.870510
  H            2.054052        1.141463       -5.361671
  H            0.818532        0.191906       -5.205400
  O            0.940141        4.004007       -0.785315
  H           -0.011234        4.272306       -0.844576
  H            1.238742        3.939077       -1.727247
  O           -2.297659        2.982186       -2.949068
  H           -1.758224        2.876791       -3.772787
  H           -2.291562        2.084104       -2.531905
  O            0.330150       -1.135290        5.472094
  H            0.060321       -1.324020        6.406002
  H            0.992765       -1.839416        5.258176
  O           -3.014002        1.241142       -0.254705
  H           -3.711011        1.655496        0.313714
  H           -3.495465        0.961888       -1.073743
  O           -3.028136        1.407373        2.666745
  H           -2.645258        0.760673        2.021924
  H           -2.737772        1.075210        3.553294
