          34
  Built with Packmol                                             
  H            1.420531       -0.693439       -0.457594
  C            0.315625       -0.640915       -0.572756
  H            0.379447        0.341256       -2.375102
  H           -0.020204       -1.577267       -1.069783
  N           -0.042833        0.489322       -1.430827
  H           -0.104344       -1.525775        1.342275
  C           -0.356072       -0.581772        0.809877
  O           -0.155039        1.845644        1.277794
  C            0.099005        0.578296        1.654298
  H            0.334594        1.383914       -1.050468
  O            0.669992        0.373338        2.712012
  H           -1.081518        0.548347       -1.533033
  H           -1.459185       -0.540948        0.693308
  O            1.485915       -3.060610        3.239390
  H            1.812538       -3.993279        3.303082
  H            0.775212       -2.999177        3.926223
  O            1.582030       -1.949185       -5.321875
  H            2.517354       -1.698836       -5.529492
  H            1.388911       -2.709857       -5.925776
  O            2.058477       -2.884173       -2.993494
  H            2.617461       -2.164844       -3.381713
  H            2.484495       -3.723221       -3.301908
  O           -0.376232       -3.873130       -0.854146
  H           -0.417537       -4.716781       -1.371019
  H            0.241761       -4.070537       -0.105996
  O            3.953647       -2.564446       -0.896278
  H            3.494030       -3.290105       -1.389009
  H            3.233548       -1.923482       -0.669925
  O           -0.529255       -3.256958       -3.385989
  H           -0.857859       -3.813076       -4.136564
  H           -1.284516       -3.232696       -2.745985
  O            2.921551       -3.628341        1.367859
  H            2.853566       -2.640423        1.370382
  H            2.300103       -3.917970        0.653345
