          34
  Built with Packmol                                             
  H            1.420531       -0.693439       -0.457594
  C            0.315625       -0.640915       -0.572756
  H            0.379447        0.341256       -2.375102
  H           -0.020204       -1.577267       -1.069783
  N           -0.042833        0.489322       -1.430827
  H           -0.104344       -1.525775        1.342275
  C           -0.356072       -0.581772        0.809877
  O           -0.155039        1.845644        1.277794
  C            0.099005        0.578296        1.654298
  H            0.334594        1.383914       -1.050468
  O            0.669992        0.373338        2.712012
  H           -1.081518        0.548347       -1.533033
  H           -1.459185       -0.540948        0.693308
  O            0.133378       -3.520860        0.442290
  H            1.066497       -3.849564        0.399231
  H           -0.379947       -4.279847        0.817855
  O            0.396091       -3.857345       -1.715671
  H            0.484074       -4.719463       -2.194860
  H            1.139540       -3.303251       -2.063343
  O            0.854281       -2.846463       -4.483234
  H            0.174609       -2.347487       -3.963928
  H            0.761892       -3.783580       -4.176819
  O           -2.059761       -4.020773       -3.339429
  H           -1.793743       -3.067704       -3.300637
  H           -1.223582       -4.502941       -3.560637
  O            1.111836       -4.019723        2.584668
  H            0.402056       -4.569060        3.003062
  H            0.950025       -3.104049        2.925211
  O           -0.410410       -3.153951        5.131937
  H            0.477470       -3.577939        5.020069
  H           -0.892153       -3.361726        4.292076
  O            3.385349       -2.990999       -3.449692
  H            2.813100       -3.797510       -3.397902
  H            2.895157       -2.305200       -2.930072
