 xtb: 6.7.1 (edcfbbe)
          06092517593D

 34 26  0     0  0            999 V2000
    0.9028   -0.9963    0.7808 H   0  0  0  0  0  0  0  0  0  0  0  0
   -0.0355   -1.2524    0.2875 C   0  0  0  0  0  0  0  0  0  0  0  0
    1.0201   -1.9566   -1.3927 H   0  0  0  0  0  0  0  0  0  0  0  0
   -0.3971   -2.2067    0.6767 H   0  0  0  0  0  0  0  0  0  0  0  0
    0.2091   -1.3524   -1.1627 N   0  0  0  0  0  0  0  0  0  0  0  0
   -1.2587   -0.0448    1.6153 H   0  0  0  0  0  0  0  0  0  0  0  0
   -1.0501   -0.1443    0.5515 C   0  0  0  0  0  0  0  0  0  0  0  0
    0.0705    1.2737   -1.0366 O   0  0  0  0  0  0  0  0  0  0  0  0
   -0.5794    1.2455    0.0404 C   0  0  0  0  0  0  0  0  0  0  0  0
    0.3407   -0.3560   -1.4688 H   0  0  0  0  0  0  0  0  0  0  0  0
   -0.8934    2.2410    0.7172 O   0  0  0  0  0  0  0  0  0  0  0  0
   -0.5969   -1.7604   -1.6560 H   0  0  0  0  0  0  0  0  0  0  0  0
   -1.9927   -0.3593    0.0438 H   0  0  0  0  0  0  0  0  0  0  0  0
   -0.8371   -4.1497    1.5558 O   0  0  0  0  0  0  0  0  0  0  0  0
   -0.1089   -4.3906    2.1563 H   0  0  0  0  0  0  0  0  0  0  0  0
   -1.6387   -4.4876    1.9632 H   0  0  0  0  0  0  0  0  0  0  0  0
    1.8003   -3.3755   -2.1757 O   0  0  0  0  0  0  0  0  0  0  0  0
    2.4097   -4.0197   -1.8082 H   0  0  0  0  0  0  0  0  0  0  0  0
    2.1457   -3.1245   -3.0594 H   0  0  0  0  0  0  0  0  0  0  0  0
   -0.1490   -2.3924   -5.3829 O   0  0  0  0  0  0  0  0  0  0  0  0
   -0.5702   -1.5477   -5.5629 H   0  0  0  0  0  0  0  0  0  0  0  0
   -0.5337   -2.7178   -4.5429 H   0  0  0  0  0  0  0  0  0  0  0  0
   -0.9029   -3.3083   -2.8903 O   0  0  0  0  0  0  0  0  0  0  0  0
   -1.4486   -4.0888   -2.7665 H   0  0  0  0  0  0  0  0  0  0  0  0
    0.0079   -3.5589   -2.6435 H   0  0  0  0  0  0  0  0  0  0  0  0
    1.2007   -4.6869    3.3913 O   0  0  0  0  0  0  0  0  0  0  0  0
    1.1858   -4.0506    4.1268 H   0  0  0  0  0  0  0  0  0  0  0  0
    2.1226   -4.7699    3.1290 H   0  0  0  0  0  0  0  0  0  0  0  0
    1.1678   -2.7989    5.4844 O   0  0  0  0  0  0  0  0  0  0  0  0
    0.8483   -3.0175    6.3654 H   0  0  0  0  0  0  0  0  0  0  0  0
    0.8634   -1.9085    5.2824 H   0  0  0  0  0  0  0  0  0  0  0  0
    2.4948   -2.6007   -4.6722 O   0  0  0  0  0  0  0  0  0  0  0  0
    1.5930   -2.5703   -5.0542 H   0  0  0  0  0  0  0  0  0  0  0  0
    2.8956   -1.7457   -4.8521 H   0  0  0  0  0  0  0  0  0  0  0  0
  1  2  1  0  0  0  0
  2  4  1  0  0  0  0
  2  5  1  0  0  0  0
  3  5  1  0  0  0  0
  2  7  1  0  0  0  0
  6  7  1  0  0  0  0
  7  9  1  0  0  0  0
  8  9  4  0  0  0  0
  5 10  1  0  0  0  0
  9 11  2  0  0  0  0
  5 12  1  0  0  0  0
  7 13  1  0  0  0  0
 14 15  1  0  0  0  0
 14 16  1  0  0  0  0
 17 18  1  0  0  0  0
 17 19  1  0  0  0  0
 20 21  1  0  0  0  0
 20 22  1  0  0  0  0
 23 24  1  0  0  0  0
 23 25  1  0  0  0  0
 26 27  1  0  0  0  0
 26 28  1  0  0  0  0
 29 30  1  0  0  0  0
 29 31  1  0  0  0  0
 32 33  1  0  0  0  0
 32 34  1  0  0  0  0
M  END
