          34
  Built with Packmol                                             
  C            0.000717       -0.522558        0.678044
  C            0.000155        0.093927        2.050368
  O           -0.000195       -0.630131        3.032262
  O           -0.000797        1.431559        2.216433
  C            0.000989        0.525311       -0.443260
  N           -0.000301       -0.116591       -1.756652
  H            0.902593       -1.162928        0.578888
  H           -0.902640       -1.160238        0.579017
  H           -0.902002        1.167413       -0.351037
  H            0.903666        1.168949       -0.351720
  H           -0.857069       -0.705532       -1.867523
  H            0.853228       -0.710069       -1.867795
  H            0.001656        0.620887       -2.497026
  O           -3.192693        0.441955        1.462809
  H           -2.379493       -0.031602        1.771127
  H           -2.850705        1.255224        1.013087
  O           -1.300342       -2.700294        4.511564
  H           -0.623973       -2.875275        5.213360
  H           -1.408655       -3.569266        4.049213
  O           -2.156158        1.438430        5.337416
  H           -2.102130        2.338029        4.927035
  H           -2.046636        1.601510        6.307994
  O           -2.221114       -0.722319        4.899680
  H           -1.257139       -0.502613        4.844068
  H           -2.612566       -0.330855        4.078624
  O            0.415748        1.408404        6.103572
  H            0.037262        1.652886        5.221762
  H           -0.089171        0.600953        6.375036
  O           -1.121567        3.086936        3.109136
  H           -0.430699        3.360089        3.763887
  H           -1.860526        3.732100        3.244474
  O           -2.145410       -2.152689        2.512707
  H           -3.102115       -1.928717        2.635848
  H           -2.116404       -2.657648        1.661362
