          34
  Built with Packmol                                             
  C            0.000717       -0.522558        0.678044
  C            0.000155        0.093927        2.050368
  O           -0.000195       -0.630131        3.032262
  O           -0.000797        1.431559        2.216433
  C            0.000989        0.525311       -0.443260
  N           -0.000301       -0.116591       -1.756652
  H            0.902593       -1.162928        0.578888
  H           -0.902640       -1.160238        0.579017
  H           -0.902002        1.167413       -0.351037
  H            0.903666        1.168949       -0.351720
  H           -0.857069       -0.705532       -1.867523
  H            0.853228       -0.710069       -1.867795
  H            0.001656        0.620887       -2.497026
  O           -3.089313       -2.504681        2.513291
  H           -3.011073       -3.490040        2.572930
  H           -2.215492       -2.207692        2.154336
  O           -0.678521       -2.966652        4.223703
  H           -1.658242       -2.826369        4.190860
  H           -0.497999       -3.625155        3.506488
  O            0.069115       -3.331119        0.348671
  H           -0.081676       -4.219822       -0.061305
  H            0.255711       -3.525883        1.301489
  O            2.036441       -3.022256        4.197406
  H            1.493205       -2.314548        3.767690
  H            1.645072       -3.870031        3.867677
  O            0.748677       -3.031671       -3.538004
  H            0.766193       -3.607535       -4.343413
  H            1.668162       -2.670097       -3.471489
  O           -2.163882       -3.218399       -3.484494
  H           -2.595567       -2.640830       -2.805765
  H           -1.346865       -3.556796       -3.038867
  O            1.811482       -3.474083       -0.982644
  H            2.574326       -3.495711       -1.613685
  H            2.196793       -3.125969       -0.139457
