 xtb: 6.7.1 (edcfbbe)
          06102511363D

 28 23  0     0  0            999 V2000
    0.4793    0.3558    0.7998 N   0  0  0  0  0  0  0  0  0  0  0  0
    1.7755    0.4864    0.1054 C   0  0  0  0  0  0  0  0  0  0  0  0
    1.5899    1.1625   -1.2487 C   0  0  0  0  0  0  0  0  0  0  0  0
    2.9162    1.3263   -1.9839 C   0  0  0  0  0  0  0  0  0  0  0  0
    3.8465    2.3916   -1.3724 C   0  0  0  0  0  0  0  0  0  0  0  0
    3.5235    2.9220   -0.2874 O   0  0  0  0  0  0  0  0  0  0  0  0
    4.8930    2.6651   -2.0082 O   0  0  0  0  0  0  0  0  0  0  0  0
    0.0898    1.2830    0.9792 H   0  0  0  0  0  0  0  0  0  0  0  0
   -0.1884   -0.1740    0.1973 H   0  0  0  0  0  0  0  0  0  0  0  0
    2.2056   -0.5043   -0.0376 H   0  0  0  0  0  0  0  0  0  0  0  0
    2.4628    1.0889    0.7000 H   0  0  0  0  0  0  0  0  0  0  0  0
    1.1660    2.1583   -1.1053 H   0  0  0  0  0  0  0  0  0  0  0  0
    0.9135    0.5718   -1.8678 H   0  0  0  0  0  0  0  0  0  0  0  0
    3.4816    0.3916   -2.0029 H   0  0  0  0  0  0  0  0  0  0  0  0
    2.7552    1.6199   -3.0233 H   0  0  0  0  0  0  0  0  0  0  0  0
    0.5906   -0.1419    1.7102 H   0  0  0  0  0  0  0  0  0  0  0  0
    0.8135   -0.8991    3.2374 O   0  0  0  0  0  0  0  0  0  0  0  0
    1.2934   -0.4416    3.9325 H   0  0  0  0  0  0  0  0  0  0  0  0
    0.9746   -1.8417    3.3391 H   0  0  0  0  0  0  0  0  0  0  0  0
   -1.2309   -1.0086   -0.9005 O   0  0  0  0  0  0  0  0  0  0  0  0
   -2.1278   -0.7093   -1.0740 H   0  0  0  0  0  0  0  0  0  0  0  0
   -1.2289   -1.9689   -0.9500 H   0  0  0  0  0  0  0  0  0  0  0  0
    5.1314    1.8302   -4.5843 O   0  0  0  0  0  0  0  0  0  0  0  0
    5.9163    2.2574   -4.9409 H   0  0  0  0  0  0  0  0  0  0  0  0
    5.0750    2.1266   -3.6491 H   0  0  0  0  0  0  0  0  0  0  0  0
    5.3294    4.6887    0.7626 O   0  0  0  0  0  0  0  0  0  0  0  0
    6.0114    4.6862    0.0842 H   0  0  0  0  0  0  0  0  0  0  0  0
    4.6382    4.0730    0.4283 H   0  0  0  0  0  0  0  0  0  0  0  0
  1  2  1  0  0  0  0
  2  3  1  0  0  0  0
  3  4  1  0  0  0  0
  4  5  1  0  0  0  0
  5  6  4  0  0  0  0
  5  7  4  0  0  0  0
  1  8  1  0  0  0  0
  1  9  1  0  0  0  0
  2 10  1  0  0  0  0
  2 11  1  0  0  0  0
  3 12  1  0  0  0  0
  3 13  1  0  0  0  0
  4 14  1  0  0  0  0
  4 15  1  0  0  0  0
  1 16  1  0  0  0  0
 17 18  1  0  0  0  0
 17 19  1  0  0  0  0
 20 21  1  0  0  0  0
 20 22  1  0  0  0  0
 23 24  1  0  0  0  0
 23 25  1  0  0  0  0
 26 27  1  0  0  0  0
 26 28  1  0  0  0  0
M  END
