 xtb: 6.7.1 (edcfbbe)
          06092518083D

 37 29  0     0  0            999 V2000
   -0.0212   -1.6508    1.3412 N   0  0  0  0  0  0  0  0  0  0  0  0
    0.2552   -0.2048    1.4692 C   0  0  0  0  0  0  0  0  0  0  0  0
   -0.0574    0.5369    0.1733 C   0  0  0  0  0  0  0  0  0  0  0  0
    0.7250    0.0013   -1.0239 C   0  0  0  0  0  0  0  0  0  0  0  0
    0.1146   -1.2562   -1.6661 C   0  0  0  0  0  0  0  0  0  0  0  0
    0.8092   -1.8469   -2.5315 O   0  0  0  0  0  0  0  0  0  0  0  0
   -1.0105   -1.6482   -1.2869 O   0  0  0  0  0  0  0  0  0  0  0  0
   -0.3136   -2.0664    2.2721 H   0  0  0  0  0  0  0  0  0  0  0  0
   -0.7696   -1.7819    0.6454 H   0  0  0  0  0  0  0  0  0  0  0  0
   -0.3666    0.1968    2.2700 H   0  0  0  0  0  0  0  0  0  0  0  0
    1.3033   -0.0676    1.7340 H   0  0  0  0  0  0  0  0  0  0  0  0
    0.1760    1.5925    0.3092 H   0  0  0  0  0  0  0  0  0  0  0  0
   -1.1228    0.4517   -0.0518 H   0  0  0  0  0  0  0  0  0  0  0  0
    1.7572   -0.2306   -0.7550 H   0  0  0  0  0  0  0  0  0  0  0  0
    0.7645    0.7453   -1.8237 H   0  0  0  0  0  0  0  0  0  0  0  0
    0.8005   -2.1581    0.9714 H   0  0  0  0  0  0  0  0  0  0  0  0
   -2.3312   -3.8808   -2.2441 O   0  0  0  0  0  0  0  0  0  0  0  0
   -2.0000   -4.0112   -3.1367 H   0  0  0  0  0  0  0  0  0  0  0  0
   -1.8862   -3.0736   -1.9108 H   0  0  0  0  0  0  0  0  0  0  0  0
    2.0591   -3.0046   -0.0572 O   0  0  0  0  0  0  0  0  0  0  0  0
    1.8159   -2.8564   -0.9791 H   0  0  0  0  0  0  0  0  0  0  0  0
    2.2215   -3.9483    0.0447 H   0  0  0  0  0  0  0  0  0  0  0  0
   -3.3188   -3.7330    2.9268 O   0  0  0  0  0  0  0  0  0  0  0  0
   -3.2477   -4.5519    2.4277 H   0  0  0  0  0  0  0  0  0  0  0  0
   -4.0592   -3.2405    2.5597 H   0  0  0  0  0  0  0  0  0  0  0  0
   -1.4643    0.1818    4.4535 O   0  0  0  0  0  0  0  0  0  0  0  0
   -2.3531    0.5385    4.5445 H   0  0  0  0  0  0  0  0  0  0  0  0
   -0.9427    0.5286    5.1834 H   0  0  0  0  0  0  0  0  0  0  0  0
    2.2981   -0.2839   -4.1645 O   0  0  0  0  0  0  0  0  0  0  0  0
    1.7652   -0.8861   -3.6011 H   0  0  0  0  0  0  0  0  0  0  0  0
    3.1536   -0.7125   -4.2721 H   0  0  0  0  0  0  0  0  0  0  0  0
    1.0497    0.7083   -6.4857 O   0  0  0  0  0  0  0  0  0  0  0  0
    0.4351   -0.0040   -6.6867 H   0  0  0  0  0  0  0  0  0  0  0  0
    1.4949    0.4520   -5.6583 H   0  0  0  0  0  0  0  0  0  0  0  0
   -0.9411   -2.4766    3.7176 O   0  0  0  0  0  0  0  0  0  0  0  0
   -1.1782   -1.6021    4.0746 H   0  0  0  0  0  0  0  0  0  0  0  0
   -1.7777   -2.9459    3.5572 H   0  0  0  0  0  0  0  0  0  0  0  0
  1  2  1  0  0  0  0
  2  3  1  0  0  0  0
  3  4  1  0  0  0  0
  4  5  1  0  0  0  0
  5  6  4  0  0  0  0
  5  7  4  0  0  0  0
  1  8  1  0  0  0  0
  1  9  1  0  0  0  0
  2 10  1  0  0  0  0
  2 11  1  0  0  0  0
  3 12  1  0  0  0  0
  3 13  1  0  0  0  0
  4 14  1  0  0  0  0
  4 15  1  0  0  0  0
  1 16  1  0  0  0  0
 17 18  1  0  0  0  0
 17 19  1  0  0  0  0
 20 21  1  0  0  0  0
 20 22  1  0  0  0  0
 23 24  1  0  0  0  0
 23 25  1  0  0  0  0
 26 27  1  0  0  0  0
 26 28  1  0  0  0  0
 29 30  1  0  0  0  0
 29 31  1  0  0  0  0
 32 33  1  0  0  0  0
 32 34  1  0  0  0  0
 35 36  1  0  0  0  0
 35 37  1  0  0  0  0
M  END
