          34
  Built with Packmol                                             
  H            1.420531       -0.693439       -0.457594
  C            0.315625       -0.640915       -0.572756
  H            0.379447        0.341256       -2.375102
  H           -0.020204       -1.577267       -1.069783
  N           -0.042833        0.489322       -1.430827
  H           -0.104344       -1.525775        1.342275
  C           -0.356072       -0.581772        0.809877
  O           -0.155039        1.845644        1.277794
  C            0.099005        0.578296        1.654298
  H            0.334594        1.383914       -1.050468
  O            0.669992        0.373338        2.712012
  H           -1.081518        0.548347       -1.533033
  H           -1.459185       -0.540948        0.693308
  O            1.412829       -4.025744       -3.845242
  H            0.843433       -4.813299       -3.655093
  H            0.791910       -3.255343       -3.805784
  O           -1.737216       -4.655146        1.267238
  H           -2.446488       -4.058550        1.615973
  H           -0.890550       -4.217229        1.535563
  O           -1.349486       -3.752011       -3.705570
  H           -1.618694       -4.464194       -3.072377
  H           -1.093013       -4.236964       -4.529982
  O            0.207076        2.204979       -4.727842
  H            0.536934        1.424716       -5.240672
  H            0.128818        2.928300       -5.399627
  O           -2.550079       -1.787571       -5.026125
  H           -2.985719       -2.508343       -4.505246
  H           -1.613559       -2.090725       -5.134022
  O            0.182072       -4.940861       -1.213348
  H            1.135951       -4.808028       -0.982955
  H           -0.113655       -4.062383       -1.561822
  O            0.072161       -0.782284       -5.608975
  H           -0.056545       -0.603595       -4.643514
  H            0.984537       -1.162113       -5.671519
