 xtb: 6.7.1 (edcfbbe)
          06092517593D

 34 26  0     0  0            999 V2000
    0.7232   -0.5533   -0.3196 H   0  0  0  0  0  0  0  0  0  0  0  0
   -0.0900   -0.7970   -1.0048 C   0  0  0  0  0  0  0  0  0  0  0  0
    0.3537    0.9330   -2.0932 H   0  0  0  0  0  0  0  0  0  0  0  0
    0.2518   -1.5531   -1.7133 H   0  0  0  0  0  0  0  0  0  0  0  0
   -0.4826    0.4204   -1.7361 N   0  0  0  0  0  0  0  0  0  0  0  0
   -1.0224   -2.2509    0.3027 H   0  0  0  0  0  0  0  0  0  0  0  0
   -1.2773   -1.3239   -0.2076 C   0  0  0  0  0  0  0  0  0  0  0  0
   -1.8127    0.8974    0.5362 O   0  0  0  0  0  0  0  0  0  0  0  0
   -1.7864   -0.3179    0.8576 C   0  0  0  0  0  0  0  0  0  0  0  0
   -1.0228    0.9885   -1.0513 H   0  0  0  0  0  0  0  0  0  0  0  0
   -2.1592   -0.7800    1.9538 O   0  0  0  0  0  0  0  0  0  0  0  0
   -1.0770    0.1785   -2.5639 H   0  0  0  0  0  0  0  0  0  0  0  0
   -2.1203   -1.5165   -0.8735 H   0  0  0  0  0  0  0  0  0  0  0  0
    0.5088   -2.9723   -3.4565 O   0  0  0  0  0  0  0  0  0  0  0  0
    0.7156   -3.6663   -2.8080 H   0  0  0  0  0  0  0  0  0  0  0  0
   -0.4119   -3.1158   -3.7255 H   0  0  0  0  0  0  0  0  0  0  0  0
   -0.0197   -4.3903    1.1520 O   0  0  0  0  0  0  0  0  0  0  0  0
   -0.7726   -4.8737    1.5052 H   0  0  0  0  0  0  0  0  0  0  0  0
    0.5237   -4.1317    1.9027 H   0  0  0  0  0  0  0  0  0  0  0  0
   -2.1880   -3.1000   -4.4057 O   0  0  0  0  0  0  0  0  0  0  0  0
   -2.8853   -3.5405   -3.9116 H   0  0  0  0  0  0  0  0  0  0  0  0
   -2.2860   -3.3594   -5.3280 H   0  0  0  0  0  0  0  0  0  0  0  0
    1.6677    1.4849   -3.0567 O   0  0  0  0  0  0  0  0  0  0  0  0
    1.6208    0.7522   -3.7025 H   0  0  0  0  0  0  0  0  0  0  0  0
    1.4910    2.2929   -3.5461 H   0  0  0  0  0  0  0  0  0  0  0  0
   -1.5627   -0.3180   -4.1370 O   0  0  0  0  0  0  0  0  0  0  0  0
   -1.8634   -1.2388   -4.1745 H   0  0  0  0  0  0  0  0  0  0  0  0
   -0.6622   -0.3311   -4.5125 H   0  0  0  0  0  0  0  0  0  0  0  0
    1.0595   -4.8203   -1.4467 O   0  0  0  0  0  0  0  0  0  0  0  0
    1.9797   -5.0024   -1.2336 H   0  0  0  0  0  0  0  0  0  0  0  0
    0.6139   -4.6497   -0.6014 H   0  0  0  0  0  0  0  0  0  0  0  0
    1.1562   -0.6490   -4.7394 O   0  0  0  0  0  0  0  0  0  0  0  0
    1.0782   -1.4698   -4.2158 H   0  0  0  0  0  0  0  0  0  0  0  0
    1.5993   -0.8924   -5.5563 H   0  0  0  0  0  0  0  0  0  0  0  0
  1  2  1  0  0  0  0
  2  4  1  0  0  0  0
  2  5  1  0  0  0  0
  3  5  1  0  0  0  0
  2  7  1  0  0  0  0
  6  7  1  0  0  0  0
  7  9  1  0  0  0  0
  8  9  4  0  0  0  0
  5 10  1  0  0  0  0
  9 11  2  0  0  0  0
  5 12  1  0  0  0  0
  7 13  1  0  0  0  0
 14 15  1  0  0  0  0
 14 16  1  0  0  0  0
 17 18  1  0  0  0  0
 17 19  1  0  0  0  0
 20 21  1  0  0  0  0
 20 22  1  0  0  0  0
 23 24  1  0  0  0  0
 23 25  1  0  0  0  0
 26 27  1  0  0  0  0
 26 28  1  0  0  0  0
 29 30  1  0  0  0  0
 29 31  1  0  0  0  0
 32 33  1  0  0  0  0
 32 34  1  0  0  0  0
M  END
