 xtb: 6.7.1 (edcfbbe)
          06092518003D

 37 29  0     0  0            999 V2000
   -0.8710    0.0632    2.1112 N   0  0  0  0  0  0  0  0  0  0  0  0
   -0.6468   -0.8630    0.9857 C   0  0  0  0  0  0  0  0  0  0  0  0
    0.0653   -0.1515   -0.1604 C   0  0  0  0  0  0  0  0  0  0  0  0
    0.2061   -1.0510   -1.3837 C   0  0  0  0  0  0  0  0  0  0  0  0
    1.1364   -0.4204   -2.4437 C   0  0  0  0  0  0  0  0  0  0  0  0
    2.2329    0.0323   -2.0647 O   0  0  0  0  0  0  0  0  0  0  0  0
    0.7356   -0.4131   -3.6378 O   0  0  0  0  0  0  0  0  0  0  0  0
    0.0079    0.5016    2.3858 H   0  0  0  0  0  0  0  0  0  0  0  0
   -1.5594    0.7907    1.8275 H   0  0  0  0  0  0  0  0  0  0  0  0
   -1.6150   -1.2258    0.6419 H   0  0  0  0  0  0  0  0  0  0  0  0
   -0.0483   -1.7082    1.3258 H   0  0  0  0  0  0  0  0  0  0  0  0
    1.0723    0.1570    0.1310 H   0  0  0  0  0  0  0  0  0  0  0  0
   -0.4896    0.7404   -0.4560 H   0  0  0  0  0  0  0  0  0  0  0  0
   -0.7596   -1.2567   -1.8444 H   0  0  0  0  0  0  0  0  0  0  0  0
    0.6695   -1.9991   -1.0996 H   0  0  0  0  0  0  0  0  0  0  0  0
   -1.2824   -0.4435    2.9386 H   0  0  0  0  0  0  0  0  0  0  0  0
   -3.8613   -1.1760   -2.6415 O   0  0  0  0  0  0  0  0  0  0  0  0
   -4.1891   -2.0273   -2.9472 H   0  0  0  0  0  0  0  0  0  0  0  0
   -3.1194   -0.9569   -3.2322 H   0  0  0  0  0  0  0  0  0  0  0  0
   -3.6101    1.3083    4.0904 O   0  0  0  0  0  0  0  0  0  0  0  0
   -3.5487    1.4425    3.1267 H   0  0  0  0  0  0  0  0  0  0  0  0
   -3.3453    2.1379    4.4967 H   0  0  0  0  0  0  0  0  0  0  0  0
   -3.0577    1.5892    1.3637 O   0  0  0  0  0  0  0  0  0  0  0  0
   -3.3997    0.8037    0.8875 H   0  0  0  0  0  0  0  0  0  0  0  0
   -3.1976    2.3439    0.7869 H   0  0  0  0  0  0  0  0  0  0  0  0
    1.1740   -3.1821    2.5396 O   0  0  0  0  0  0  0  0  0  0  0  0
    2.1258   -3.2138    2.6689 H   0  0  0  0  0  0  0  0  0  0  0  0
    0.8141   -4.0200    2.8454 H   0  0  0  0  0  0  0  0  0  0  0  0
   -2.0917   -0.9609    4.3067 O   0  0  0  0  0  0  0  0  0  0  0  0
   -2.7689   -0.2549    4.3364 H   0  0  0  0  0  0  0  0  0  0  0  0
   -1.6572   -0.9715    5.1634 H   0  0  0  0  0  0  0  0  0  0  0  0
   -1.7786   -0.8508   -4.4296 O   0  0  0  0  0  0  0  0  0  0  0  0
   -0.8499   -0.7221   -4.1220 H   0  0  0  0  0  0  0  0  0  0  0  0
   -1.8219   -0.4324   -5.2941 H   0  0  0  0  0  0  0  0  0  0  0  0
   -3.8632   -0.6719    0.0852 O   0  0  0  0  0  0  0  0  0  0  0  0
   -4.6204   -1.1781    0.3927 H   0  0  0  0  0  0  0  0  0  0  0  0
   -3.8452   -0.7635   -0.8828 H   0  0  0  0  0  0  0  0  0  0  0  0
  1  2  1  0  0  0  0
  2  3  1  0  0  0  0
  3  4  1  0  0  0  0
  4  5  1  0  0  0  0
  5  6  2  0  0  0  0
  5  7  4  0  0  0  0
  1  8  1  0  0  0  0
  1  9  1  0  0  0  0
  2 10  1  0  0  0  0
  2 11  1  0  0  0  0
  3 12  1  0  0  0  0
  3 13  1  0  0  0  0
  4 14  1  0  0  0  0
  4 15  1  0  0  0  0
  1 16  1  0  0  0  0
 17 18  1  0  0  0  0
 17 19  1  0  0  0  0
 20 21  1  0  0  0  0
 20 22  1  0  0  0  0
 23 24  1  0  0  0  0
 23 25  1  0  0  0  0
 26 27  1  0  0  0  0
 26 28  1  0  0  0  0
 29 30  1  0  0  0  0
 29 31  1  0  0  0  0
 32 33  1  0  0  0  0
 32 34  1  0  0  0  0
 35 36  1  0  0  0  0
 35 37  1  0  0  0  0
M  END
