20
Alanine + maximally spaced waters in ellipsoid face
C 0.000717 -0.522558 0.678044
C 0.000155 0.093927 2.050368
O -0.000195 -0.630131 3.032262
O -0.000797 1.431559 2.216433
C 0.000989 0.525311 -0.443260
N -0.000301 -0.116591 -1.756652
H 0.902593 -1.162928 0.578888
H -0.902640 -1.160238 0.579017
H -0.902002 1.167413 -0.351037
H 0.903666 1.168949 -0.351720
H -0.857069 -0.705532 -1.867523
H 0.853228 -0.710069 -1.867795
H 0.001656 0.620887 -2.497026
O 1.7618 -1.9052 -4.6016
O -2.7747 -1.9052 2.8605
O -0.4000 -1.9052 5.4313
O 3.2380 -1.9052 -0.5528
O -3.0599 -1.9052 -1.8644
O -1.0410 -1.9052 -5.1853
O 2.2758 -1.9052 3.9123
