 xtb: 6.7.1 (edcfbbe)
          06092517543D

 34 26  0     0  0            999 V2000
    0.2279   -0.1765    0.0036 C   0  0  0  0  0  0  0  0  0  0  0  0
    0.4685    0.3506    1.4355 C   0  0  0  0  0  0  0  0  0  0  0  0
    1.6716    0.3943    1.8197 O   0  0  0  0  0  0  0  0  0  0  0  0
   -0.5061    0.7157    2.1095 O   0  0  0  0  0  0  0  0  0  0  0  0
    0.2507    0.9863   -0.9804 C   0  0  0  0  0  0  0  0  0  0  0  0
    0.2657    0.4765   -2.3658 N   0  0  0  0  0  0  0  0  0  0  0  0
    1.0256   -0.8801   -0.2308 H   0  0  0  0  0  0  0  0  0  0  0  0
   -0.7375   -0.6803   -0.0180 H   0  0  0  0  0  0  0  0  0  0  0  0
   -0.6257    1.6134   -0.8117 H   0  0  0  0  0  0  0  0  0  0  0  0
    1.1473    1.5842   -0.8103 H   0  0  0  0  0  0  0  0  0  0  0  0
   -0.5420   -0.1689   -2.5183 H   0  0  0  0  0  0  0  0  0  0  0  0
    1.1701   -0.0571   -2.5151 H   0  0  0  0  0  0  0  0  0  0  0  0
    0.2220    1.2422   -3.0383 H   0  0  0  0  0  0  0  0  0  0  0  0
    3.1005   -1.7208    2.8618 O   0  0  0  0  0  0  0  0  0  0  0  0
    2.5382   -0.9649    2.6139 H   0  0  0  0  0  0  0  0  0  0  0  0
    3.9586   -1.5470    2.4605 H   0  0  0  0  0  0  0  0  0  0  0  0
    2.2507   -4.4160    2.9545 O   0  0  0  0  0  0  0  0  0  0  0  0
    2.0240   -4.5589    3.8771 H   0  0  0  0  0  0  0  0  0  0  0  0
    2.5120   -3.4809    2.8892 H   0  0  0  0  0  0  0  0  0  0  0  0
    3.5819    0.3663   -0.1052 O   0  0  0  0  0  0  0  0  0  0  0  0
    4.1520    1.1170    0.0772 H   0  0  0  0  0  0  0  0  0  0  0  0
    2.8928    0.3683    0.5952 H   0  0  0  0  0  0  0  0  0  0  0  0
    2.7323   -3.4825   -1.9881 O   0  0  0  0  0  0  0  0  0  0  0  0
    3.5097   -3.8498   -1.5561 H   0  0  0  0  0  0  0  0  0  0  0  0
    1.9858   -4.0331   -1.7319 H   0  0  0  0  0  0  0  0  0  0  0  0
   -1.9012   -1.1785   -2.7351 O   0  0  0  0  0  0  0  0  0  0  0  0
   -2.7347   -0.7609   -3.0073 H   0  0  0  0  0  0  0  0  0  0  0  0
   -1.8303   -1.9994   -3.2301 H   0  0  0  0  0  0  0  0  0  0  0  0
   -4.2627    0.0698   -3.5965 O   0  0  0  0  0  0  0  0  0  0  0  0
   -4.3403    0.5976   -4.3977 H   0  0  0  0  0  0  0  0  0  0  0  0
   -4.9086    0.4012   -2.9666 H   0  0  0  0  0  0  0  0  0  0  0  0
    2.6764   -0.7082   -2.5279 O   0  0  0  0  0  0  0  0  0  0  0  0
    2.7038   -1.6752   -2.4413 H   0  0  0  0  0  0  0  0  0  0  0  0
    3.1021   -0.3541   -1.7267 H   0  0  0  0  0  0  0  0  0  0  0  0
  1  2  1  0  0  0  0
  2  3  4  0  0  0  0
  2  4  2  0  0  0  0
  1  5  1  0  0  0  0
  5  6  1  0  0  0  0
  1  7  1  0  0  0  0
  1  8  1  0  0  0  0
  5  9  1  0  0  0  0
  5 10  1  0  0  0  0
  6 11  1  0  0  0  0
  6 12  1  0  0  0  0
  6 13  1  0  0  0  0
 14 15  1  0  0  0  0
 14 16  1  0  0  0  0
 17 18  1  0  0  0  0
 17 19  1  0  0  0  0
 20 21  1  0  0  0  0
 20 22  1  0  0  0  0
 23 24  1  0  0  0  0
 23 25  1  0  0  0  0
 26 27  1  0  0  0  0
 26 28  1  0  0  0  0
 29 30  1  0  0  0  0
 29 31  1  0  0  0  0
 32 33  1  0  0  0  0
 32 34  1  0  0  0  0
M  END
