 xtb: 6.7.1 (edcfbbe)
          06092517583D

 34 26  0     0  0            999 V2000
    0.8938   -1.1408   -0.4581 H   0  0  0  0  0  0  0  0  0  0  0  0
   -0.0649   -0.6249   -0.3851 C   0  0  0  0  0  0  0  0  0  0  0  0
    0.3891    0.5705   -2.0365 H   0  0  0  0  0  0  0  0  0  0  0  0
   -0.8425   -1.2396   -0.8374 H   0  0  0  0  0  0  0  0  0  0  0  0
    0.0305    0.6713   -1.0878 N   0  0  0  0  0  0  0  0  0  0  0  0
   -0.4206   -1.3243    1.6251 H   0  0  0  0  0  0  0  0  0  0  0  0
   -0.3899   -0.3810    1.0819 C   0  0  0  0  0  0  0  0  0  0  0  0
    1.3795    1.2526    1.1060 O   0  0  0  0  0  0  0  0  0  0  0  0
    0.6048    0.5522    1.7946 C   0  0  0  0  0  0  0  0  0  0  0  0
    0.6868    1.2270   -0.4902 H   0  0  0  0  0  0  0  0  0  0  0  0
    0.5433    0.5999    3.0503 O   0  0  0  0  0  0  0  0  0  0  0  0
   -0.9072    1.1502   -1.1051 H   0  0  0  0  0  0  0  0  0  0  0  0
   -1.3694    0.0909    1.1874 H   0  0  0  0  0  0  0  0  0  0  0  0
   -2.4105    1.8813   -1.0272 O   0  0  0  0  0  0  0  0  0  0  0  0
   -2.4899    2.8104   -1.2626 H   0  0  0  0  0  0  0  0  0  0  0  0
   -2.7074    1.8052   -0.1037 H   0  0  0  0  0  0  0  0  0  0  0  0
   -3.2309   -4.4308    2.3539 O   0  0  0  0  0  0  0  0  0  0  0  0
   -3.8710   -3.7488    2.1250 H   0  0  0  0  0  0  0  0  0  0  0  0
   -3.5325   -4.8346    3.1741 H   0  0  0  0  0  0  0  0  0  0  0  0
   -0.6383   -3.4449    2.4940 O   0  0  0  0  0  0  0  0  0  0  0  0
   -1.5379   -3.8134    2.3910 H   0  0  0  0  0  0  0  0  0  0  0  0
   -0.0446   -4.2009    2.5282 H   0  0  0  0  0  0  0  0  0  0  0  0
   -1.2195    2.6389    3.5728 O   0  0  0  0  0  0  0  0  0  0  0  0
   -0.7359    3.4617    3.6958 H   0  0  0  0  0  0  0  0  0  0  0  0
   -0.5506    1.9313    3.5223 H   0  0  0  0  0  0  0  0  0  0  0  0
   -3.0306    1.7254    1.6733 O   0  0  0  0  0  0  0  0  0  0  0  0
   -3.7982    1.4206    2.1654 H   0  0  0  0  0  0  0  0  0  0  0  0
   -2.4271    2.1137    2.3309 H   0  0  0  0  0  0  0  0  0  0  0  0
   -0.5171   -1.4991    4.5306 O   0  0  0  0  0  0  0  0  0  0  0  0
   -0.5591   -2.2065    3.8608 H   0  0  0  0  0  0  0  0  0  0  0  0
   -0.1275   -0.7311    4.0694 H   0  0  0  0  0  0  0  0  0  0  0  0
   -2.8110   -1.1674    6.0888 O   0  0  0  0  0  0  0  0  0  0  0  0
   -2.0174   -1.3095    5.5381 H   0  0  0  0  0  0  0  0  0  0  0  0
   -2.5448   -0.5370    6.7637 H   0  0  0  0  0  0  0  0  0  0  0  0
  1  2  1  0  0  0  0
  2  4  1  0  0  0  0
  2  5  1  0  0  0  0
  3  5  1  0  0  0  0
  2  7  1  0  0  0  0
  6  7  1  0  0  0  0
  7  9  1  0  0  0  0
  8  9  4  0  0  0  0
  5 10  1  0  0  0  0
  9 11  4  0  0  0  0
  5 12  1  0  0  0  0
  7 13  1  0  0  0  0
 14 15  1  0  0  0  0
 14 16  1  0  0  0  0
 17 18  1  0  0  0  0
 17 19  1  0  0  0  0
 20 21  1  0  0  0  0
 20 22  1  0  0  0  0
 23 24  1  0  0  0  0
 23 25  1  0  0  0  0
 26 27  1  0  0  0  0
 26 28  1  0  0  0  0
 29 30  1  0  0  0  0
 29 31  1  0  0  0  0
 32 33  1  0  0  0  0
 32 34  1  0  0  0  0
M  END
