 xtb: 6.7.1 (edcfbbe)
          06092518003D

 37 29  0     0  0            999 V2000
    0.8720    0.4587    1.9668 N   0  0  0  0  0  0  0  0  0  0  0  0
    0.1552   -0.4469    1.0534 C   0  0  0  0  0  0  0  0  0  0  0  0
    0.0564    0.1758   -0.3350 C   0  0  0  0  0  0  0  0  0  0  0  0
   -0.4278   -0.8190   -1.3834 C   0  0  0  0  0  0  0  0  0  0  0  0
   -0.2953   -0.2844   -2.8194 C   0  0  0  0  0  0  0  0  0  0  0  0
    0.6498    0.4789   -3.0995 O   0  0  0  0  0  0  0  0  0  0  0  0
   -1.1471   -0.6790   -3.6593 O   0  0  0  0  0  0  0  0  0  0  0  0
    1.8245    0.6614    1.6002 H   0  0  0  0  0  0  0  0  0  0  0  0
    0.3608    1.3553    2.0492 H   0  0  0  0  0  0  0  0  0  0  0  0
   -0.8415   -0.6420    1.4500 H   0  0  0  0  0  0  0  0  0  0  0  0
    0.6965   -1.3905    0.9847 H   0  0  0  0  0  0  0  0  0  0  0  0
    1.0385    0.5318   -0.6439 H   0  0  0  0  0  0  0  0  0  0  0  0
   -0.6234    1.0283   -0.3270 H   0  0  0  0  0  0  0  0  0  0  0  0
   -1.4667   -1.1108   -1.2258 H   0  0  0  0  0  0  0  0  0  0  0  0
    0.1821   -1.7269   -1.3569 H   0  0  0  0  0  0  0  0  0  0  0  0
    0.9311    0.0466    2.9241 H   0  0  0  0  0  0  0  0  0  0  0  0
    0.5121   -0.5104    4.5104 O   0  0  0  0  0  0  0  0  0  0  0  0
    0.4123   -1.4349    4.7495 H   0  0  0  0  0  0  0  0  0  0  0  0
   -0.3863   -0.1378    4.4360 H   0  0  0  0  0  0  0  0  0  0  0  0
   -0.5131    2.8968    2.3854 O   0  0  0  0  0  0  0  0  0  0  0  0
    0.0623    3.4894    2.8814 H   0  0  0  0  0  0  0  0  0  0  0  0
   -0.8206    3.3786    1.6129 H   0  0  0  0  0  0  0  0  0  0  0  0
    3.3361    1.0314    0.8091 O   0  0  0  0  0  0  0  0  0  0  0  0
    4.1242    0.4900    0.9028 H   0  0  0  0  0  0  0  0  0  0  0  0
    3.2304    1.2043   -0.1420 H   0  0  0  0  0  0  0  0  0  0  0  0
   -1.8472    0.7006    3.7258 O   0  0  0  0  0  0  0  0  0  0  0  0
   -1.5406    1.5232    3.3139 H   0  0  0  0  0  0  0  0  0  0  0  0
   -2.7150    0.8779    4.0948 H   0  0  0  0  0  0  0  0  0  0  0  0
   -3.3626   -2.0562   -2.7985 O   0  0  0  0  0  0  0  0  0  0  0  0
   -2.5797   -1.5798   -3.1436 H   0  0  0  0  0  0  0  0  0  0  0  0
   -3.9421   -2.1855   -3.5555 H   0  0  0  0  0  0  0  0  0  0  0  0
   -1.1494    0.1540   -6.2888 O   0  0  0  0  0  0  0  0  0  0  0  0
   -0.8235   -0.6320   -6.7394 H   0  0  0  0  0  0  0  0  0  0  0  0
   -1.1325   -0.0663   -5.3345 H   0  0  0  0  0  0  0  0  0  0  0  0
    2.9640    1.4093   -1.9360 O   0  0  0  0  0  0  0  0  0  0  0  0
    2.1774    1.0429   -2.3839 H   0  0  0  0  0  0  0  0  0  0  0  0
    3.2161    2.1852   -2.4445 H   0  0  0  0  0  0  0  0  0  0  0  0
  1  2  1  0  0  0  0
  2  3  1  0  0  0  0
  3  4  1  0  0  0  0
  4  5  1  0  0  0  0
  5  6  4  0  0  0  0
  5  7  4  0  0  0  0
  1  8  1  0  0  0  0
  1  9  1  0  0  0  0
  2 10  1  0  0  0  0
  2 11  1  0  0  0  0
  3 12  1  0  0  0  0
  3 13  1  0  0  0  0
  4 14  1  0  0  0  0
  4 15  1  0  0  0  0
  1 16  1  0  0  0  0
 17 18  1  0  0  0  0
 17 19  1  0  0  0  0
 20 21  1  0  0  0  0
 20 22  1  0  0  0  0
 23 24  1  0  0  0  0
 23 25  1  0  0  0  0
 26 27  1  0  0  0  0
 26 28  1  0  0  0  0
 29 30  1  0  0  0  0
 29 31  1  0  0  0  0
 32 33  1  0  0  0  0
 32 34  1  0  0  0  0
 35 36  1  0  0  0  0
 35 37  1  0  0  0  0
M  END
