          37
  Built with Packmol                                             
  N            0.002605        0.268339        2.349498
  C            0.005610       -0.534268        1.127824
  C           -0.013605        0.360442       -0.117570
  C           -0.006580       -0.484114       -1.399583
  C            0.005309        0.346063       -2.655593
  O            0.015980        1.566588       -2.611145
  O            0.010136       -0.270580       -3.851920
  H            0.843830        0.889238        2.373417
  H           -0.867625        0.846216        2.397033
  H           -0.885896       -1.198618        1.124039
  H            0.917756       -1.170846        1.111005
  H            0.882890        1.016132       -0.103939
  H           -0.924881        0.997831       -0.099780
  H           -0.910028       -1.129127       -1.413513
  H            0.894287       -1.134110       -1.406828
  H            0.030211       -0.369186        3.177055
  O           -0.252785        2.452017       -7.329933
  H           -0.795841        2.980992       -6.692840
  H            0.548406        2.186406       -6.812095
  O           -3.203844        2.818708       -4.120207
  H           -2.788755        3.642971       -3.761177
  H           -3.420526        2.280281       -3.317862
  O           -2.599351       -0.893840       -3.742650
  H           -3.258699       -1.122915       -3.040228
  H           -1.899056       -1.589307       -3.661869
  O           -1.627404        1.432473       -5.322083
  H           -0.780137        0.956523       -5.512401
  H           -1.919724        1.077583       -4.445034
  O           -0.000769        3.906819       -4.308736
  H           -0.610272        3.202234       -3.973061
  H            0.535664        3.457613       -5.009498
  O           -2.594190        1.320426       -1.508133
  H           -3.527062        0.988677       -1.525564
  H           -2.079407        0.639829       -2.010526
  O           -2.130349        0.082897       -7.009832
  H           -1.399073       -0.352244       -7.516289
  H           -2.216353        0.980175       -7.419842
