 xtb: 6.7.1 (edcfbbe)
          06092518083D

 37 29  0     0  0            999 V2000
   -0.7670   -1.6921    1.6887 N   0  0  0  0  0  0  0  0  0  0  0  0
   -0.1367   -0.3668    1.8097 C   0  0  0  0  0  0  0  0  0  0  0  0
   -0.2080    0.3948    0.4896 C   0  0  0  0  0  0  0  0  0  0  0  0
    0.7518   -0.1227   -0.5925 C   0  0  0  0  0  0  0  0  0  0  0  0
    0.2366   -1.2864   -1.4636 C   0  0  0  0  0  0  0  0  0  0  0  0
    0.3675   -1.1933   -2.6953 O   0  0  0  0  0  0  0  0  0  0  0  0
   -0.2702   -2.2852   -0.8799 O   0  0  0  0  0  0  0  0  0  0  0  0
   -0.4971   -2.3242    2.4602 H   0  0  0  0  0  0  0  0  0  0  0  0
   -1.8023   -1.6132    1.6666 H   0  0  0  0  0  0  0  0  0  0  0  0
   -0.6537    0.2008    2.5842 H   0  0  0  0  0  0  0  0  0  0  0  0
    0.9078   -0.4916    2.0969 H   0  0  0  0  0  0  0  0  0  0  0  0
    0.0500    1.4353    0.6866 H   0  0  0  0  0  0  0  0  0  0  0  0
   -1.2319    0.3816    0.1138 H   0  0  0  0  0  0  0  0  0  0  0  0
    1.6865   -0.4619   -0.1374 H   0  0  0  0  0  0  0  0  0  0  0  0
    0.9979    0.6785   -1.2923 H   0  0  0  0  0  0  0  0  0  0  0  0
   -0.4921   -2.1015    0.7606 H   0  0  0  0  0  0  0  0  0  0  0  0
   -0.0900   -3.5205    3.7245 O   0  0  0  0  0  0  0  0  0  0  0  0
   -0.4283   -4.4082    3.5755 H   0  0  0  0  0  0  0  0  0  0  0  0
    0.7499   -3.6014    4.1845 H   0  0  0  0  0  0  0  0  0  0  0  0
   -2.1557    1.0356    4.0241 O   0  0  0  0  0  0  0  0  0  0  0  0
   -1.9798    1.9425    4.3274 H   0  0  0  0  0  0  0  0  0  0  0  0
   -2.5872    0.5915    4.7606 H   0  0  0  0  0  0  0  0  0  0  0  0
   -2.8449   -3.2026   -0.9384 O   0  0  0  0  0  0  0  0  0  0  0  0
   -1.8943   -2.9859   -1.0071 H   0  0  0  0  0  0  0  0  0  0  0  0
   -3.2058   -3.1202   -1.8247 H   0  0  0  0  0  0  0  0  0  0  0  0
   -3.5364   -1.8147    1.3107 O   0  0  0  0  0  0  0  0  0  0  0  0
   -4.0924   -2.3829    1.8520 H   0  0  0  0  0  0  0  0  0  0  0  0
   -3.3942   -2.2903    0.4682 H   0  0  0  0  0  0  0  0  0  0  0  0
   -5.2077    3.0141    0.8560 O   0  0  0  0  0  0  0  0  0  0  0  0
   -4.6098    2.2915    1.1328 H   0  0  0  0  0  0  0  0  0  0  0  0
   -4.9109    3.2653   -0.0231 H   0  0  0  0  0  0  0  0  0  0  0  0
   -3.4143    0.9972    1.5112 O   0  0  0  0  0  0  0  0  0  0  0  0
   -2.9868    1.0494    2.3862 H   0  0  0  0  0  0  0  0  0  0  0  0
   -3.6111    0.0549    1.3828 H   0  0  0  0  0  0  0  0  0  0  0  0
   -1.7697    3.6878    4.8551 O   0  0  0  0  0  0  0  0  0  0  0  0
   -2.5232    4.2679    4.7059 H   0  0  0  0  0  0  0  0  0  0  0  0
   -0.9870    4.1530    4.5439 H   0  0  0  0  0  0  0  0  0  0  0  0
  1  2  1  0  0  0  0
  2  3  1  0  0  0  0
  3  4  1  0  0  0  0
  4  5  1  0  0  0  0
  5  6  2  0  0  0  0
  5  7  4  0  0  0  0
  1  8  1  0  0  0  0
  1  9  1  0  0  0  0
  2 10  1  0  0  0  0
  2 11  1  0  0  0  0
  3 12  1  0  0  0  0
  3 13  1  0  0  0  0
  4 14  1  0  0  0  0
  4 15  1  0  0  0  0
  1 16  1  0  0  0  0
 17 18  1  0  0  0  0
 17 19  1  0  0  0  0
 20 21  1  0  0  0  0
 20 22  1  0  0  0  0
 23 24  1  0  0  0  0
 23 25  1  0  0  0  0
 26 27  1  0  0  0  0
 26 28  1  0  0  0  0
 29 30  1  0  0  0  0
 29 31  1  0  0  0  0
 32 33  1  0  0  0  0
 32 34  1  0  0  0  0
 35 36  1  0  0  0  0
 35 37  1  0  0  0  0
M  END
