 xtb: 6.7.1 (edcfbbe)
          06092517583D

 34 26  0     0  0            999 V2000
    2.1569   -0.3109   -0.4219 H   0  0  0  0  0  0  0  0  0  0  0  0
    1.1101   -0.2329   -0.7194 C   0  0  0  0  0  0  0  0  0  0  0  0
    1.6248    1.2456   -2.1122 H   0  0  0  0  0  0  0  0  0  0  0  0
    0.8708   -1.0554   -1.3959 H   0  0  0  0  0  0  0  0  0  0  0  0
    0.8990    1.0594   -1.3982 N   0  0  0  0  0  0  0  0  0  0  0  0
    0.3178   -1.2660    1.0131 H   0  0  0  0  0  0  0  0  0  0  0  0
    0.2341   -0.2948    0.5276 C   0  0  0  0  0  0  0  0  0  0  0  0
    0.8774    1.9442    1.1090 O   0  0  0  0  0  0  0  0  0  0  0  0
    0.5901    0.8071    1.5511 C   0  0  0  0  0  0  0  0  0  0  0  0
    0.9398    1.7666   -0.6304 H   0  0  0  0  0  0  0  0  0  0  0  0
    0.5557    0.5159    2.7683 O   0  0  0  0  0  0  0  0  0  0  0  0
   -0.0490    1.0962   -1.8320 H   0  0  0  0  0  0  0  0  0  0  0  0
   -0.8116   -0.1400    0.2537 H   0  0  0  0  0  0  0  0  0  0  0  0
   -0.1233   -3.7884    1.9502 O   0  0  0  0  0  0  0  0  0  0  0  0
   -0.9767   -4.1233    2.2421 H   0  0  0  0  0  0  0  0  0  0  0  0
    0.1683   -3.1780    2.6512 H   0  0  0  0  0  0  0  0  0  0  0  0
    2.9950    1.5579   -3.2015 O   0  0  0  0  0  0  0  0  0  0  0  0
    3.7214    2.1129   -2.9051 H   0  0  0  0  0  0  0  0  0  0  0  0
    3.3600    0.8722   -3.7686 H   0  0  0  0  0  0  0  0  0  0  0  0
   -1.7879    0.5982   -5.1870 O   0  0  0  0  0  0  0  0  0  0  0  0
   -2.3241   -0.1554   -5.4511 H   0  0  0  0  0  0  0  0  0  0  0  0
   -0.9422    0.5168   -5.6399 H   0  0  0  0  0  0  0  0  0  0  0  0
   -1.7585   -4.0958   -2.7314 O   0  0  0  0  0  0  0  0  0  0  0  0
   -2.4027   -3.5346   -2.2878 H   0  0  0  0  0  0  0  0  0  0  0  0
   -1.8135   -4.9630   -2.3183 H   0  0  0  0  0  0  0  0  0  0  0  0
    0.5871   -1.9303    3.8908 O   0  0  0  0  0  0  0  0  0  0  0  0
    1.4025   -1.9178    4.4013 H   0  0  0  0  0  0  0  0  0  0  0  0
    0.5058   -1.0309    3.5001 H   0  0  0  0  0  0  0  0  0  0  0  0
   -1.6483    1.2030   -2.4777 O   0  0  0  0  0  0  0  0  0  0  0  0
   -2.1080    2.0399   -2.3702 H   0  0  0  0  0  0  0  0  0  0  0  0
   -1.7042    0.9806   -3.4266 H   0  0  0  0  0  0  0  0  0  0  0  0
    0.8013   -2.8494   -2.7868 O   0  0  0  0  0  0  0  0  0  0  0  0
    1.4074   -3.5556   -2.5480 H   0  0  0  0  0  0  0  0  0  0  0  0
   -0.0761   -3.2606   -2.8606 H   0  0  0  0  0  0  0  0  0  0  0  0
  1  2  1  0  0  0  0
  2  4  1  0  0  0  0
  2  5  1  0  0  0  0
  3  5  1  0  0  0  0
  2  7  1  0  0  0  0
  6  7  1  0  0  0  0
  7  9  1  0  0  0  0
  8  9  4  0  0  0  0
  5 10  1  0  0  0  0
  9 11  4  0  0  0  0
  5 12  1  0  0  0  0
  7 13  1  0  0  0  0
 14 15  1  0  0  0  0
 14 16  1  0  0  0  0
 17 18  1  0  0  0  0
 17 19  1  0  0  0  0
 20 21  1  0  0  0  0
 20 22  1  0  0  0  0
 23 24  1  0  0  0  0
 23 25  1  0  0  0  0
 26 27  1  0  0  0  0
 26 28  1  0  0  0  0
 29 30  1  0  0  0  0
 29 31  1  0  0  0  0
 32 33  1  0  0  0  0
 32 34  1  0  0  0  0
M  END
