 xtb: 6.7.1 (edcfbbe)
          06092518053D

 37 29  0     0  0            999 V2000
   -1.1585   -1.0667    1.8380 N   0  0  0  0  0  0  0  0  0  0  0  0
   -0.4576    0.1083    1.2917 C   0  0  0  0  0  0  0  0  0  0  0  0
   -1.1552    0.6398    0.0405 C   0  0  0  0  0  0  0  0  0  0  0  0
   -1.5598   -0.4502   -0.9647 C   0  0  0  0  0  0  0  0  0  0  0  0
   -0.4430   -1.4669   -1.2579 C   0  0  0  0  0  0  0  0  0  0  0  0
    0.1924   -1.3787   -2.3286 O   0  0  0  0  0  0  0  0  0  0  0  0
   -0.2445   -2.3577   -0.3918 O   0  0  0  0  0  0  0  0  0  0  0  0
   -0.7954   -1.2965    2.7922 H   0  0  0  0  0  0  0  0  0  0  0  0
   -2.1802   -0.8950    1.9057 H   0  0  0  0  0  0  0  0  0  0  0  0
   -0.4187    0.8901    2.0505 H   0  0  0  0  0  0  0  0  0  0  0  0
    0.5619   -0.1914    1.0415 H   0  0  0  0  0  0  0  0  0  0  0  0
   -0.4874    1.3454   -0.4548 H   0  0  0  0  0  0  0  0  0  0  0  0
   -2.0633    1.1749    0.3213 H   0  0  0  0  0  0  0  0  0  0  0  0
   -2.4177   -1.0085   -0.5868 H   0  0  0  0  0  0  0  0  0  0  0  0
   -1.8408    0.0214   -1.9071 H   0  0  0  0  0  0  0  0  0  0  0  0
   -0.9786   -1.8453    1.1738 H   0  0  0  0  0  0  0  0  0  0  0  0
   -0.7108    0.2364   -4.3341 O   0  0  0  0  0  0  0  0  0  0  0  0
   -0.6333   -0.2901   -5.1355 H   0  0  0  0  0  0  0  0  0  0  0  0
   -0.3170   -0.3129   -3.6230 H   0  0  0  0  0  0  0  0  0  0  0  0
    0.0670    1.5250    4.4105 O   0  0  0  0  0  0  0  0  0  0  0  0
   -0.5566    2.0718    4.8991 H   0  0  0  0  0  0  0  0  0  0  0  0
    0.9441    1.8898    4.5627 H   0  0  0  0  0  0  0  0  0  0  0  0
    4.3333    0.0288    7.1145 O   0  0  0  0  0  0  0  0  0  0  0  0
    5.1557   -0.0135    6.6173 H   0  0  0  0  0  0  0  0  0  0  0  0
    4.2690   -0.7841    7.6255 H   0  0  0  0  0  0  0  0  0  0  0  0
    2.0851   -3.2223    0.7908 O   0  0  0  0  0  0  0  0  0  0  0  0
    1.3253   -2.9390    0.2482 H   0  0  0  0  0  0  0  0  0  0  0  0
    1.9217   -4.1501    0.9883 H   0  0  0  0  0  0  0  0  0  0  0  0
   -3.9290   -0.7398    2.1239 O   0  0  0  0  0  0  0  0  0  0  0  0
   -4.2365   -0.1341    2.8058 H   0  0  0  0  0  0  0  0  0  0  0  0
   -4.4046   -1.5665    2.2445 H   0  0  0  0  0  0  0  0  0  0  0  0
   -0.2508   -1.2440    4.4099 O   0  0  0  0  0  0  0  0  0  0  0  0
   -0.1390   -0.2790    4.4988 H   0  0  0  0  0  0  0  0  0  0  0  0
    0.5939   -1.6417    4.6358 H   0  0  0  0  0  0  0  0  0  0  0  0
    0.3355    0.4441  -10.0762 O   0  0  0  0  0  0  0  0  0  0  0  0
    1.0125    0.1475   -9.4602 H   0  0  0  0  0  0  0  0  0  0  0  0
   -0.2218    1.0708   -9.6041 H   0  0  0  0  0  0  0  0  0  0  0  0
  1  2  1  0  0  0  0
  2  3  1  0  0  0  0
  3  4  1  0  0  0  0
  4  5  1  0  0  0  0
  5  6  4  0  0  0  0
  5  7  4  0  0  0  0
  1  8  1  0  0  0  0
  1  9  1  0  0  0  0
  2 10  1  0  0  0  0
  2 11  1  0  0  0  0
  3 12  1  0  0  0  0
  3 13  1  0  0  0  0
  4 14  1  0  0  0  0
  4 15  1  0  0  0  0
  1 16  1  0  0  0  0
 17 18  1  0  0  0  0
 17 19  1  0  0  0  0
 20 21  1  0  0  0  0
 20 22  1  0  0  0  0
 23 24  1  0  0  0  0
 23 25  1  0  0  0  0
 26 27  1  0  0  0  0
 26 28  1  0  0  0  0
 29 30  1  0  0  0  0
 29 31  1  0  0  0  0
 32 33  1  0  0  0  0
 32 34  1  0  0  0  0
 35 36  1  0  0  0  0
 35 37  1  0  0  0  0
M  END
