          34
  Built with Packmol                                             
  C            0.000717       -0.522558        0.678044
  C            0.000155        0.093927        2.050368
  O           -0.000195       -0.630131        3.032262
  O           -0.000797        1.431559        2.216433
  C            0.000989        0.525311       -0.443260
  N           -0.000301       -0.116591       -1.756652
  H            0.902593       -1.162928        0.578888
  H           -0.902640       -1.160238        0.579017
  H           -0.902002        1.167413       -0.351037
  H            0.903666        1.168949       -0.351720
  H           -0.857069       -0.705532       -1.867523
  H            0.853228       -0.710069       -1.867795
  H            0.001656        0.620887       -2.497026
  O            2.895727       -1.076097        3.979445
  H            2.992904       -0.228824        4.482730
  H            2.159044       -0.902290        3.340929
  O            1.506686       -3.744799        0.467466
  H            2.408137       -4.004595        0.784488
  H            1.676467       -3.071232       -0.238292
  O            3.088807       -1.282045        0.878735
  H            2.832624       -0.426153        1.305854
  H            2.829890       -1.975076        1.536977
  O           -0.108450        3.188796        3.472103
  H            0.083100        4.107141        3.789219
  H           -0.137604        2.642354        4.297429
  O            2.789915        0.044457       -0.973053
  H            3.593200        0.596338       -1.148472
  H            3.040209       -0.862863       -1.280847
  O            0.274939       -2.687830        5.031746
  H            0.129939       -2.917895        5.983931
  H            1.214761       -2.378417        4.991604
  O            0.664369       -0.545646        6.230097
  H            0.114173       -0.942407        6.951537
  H            1.595217       -0.786522        6.466981
