 xtb: 6.7.1 (edcfbbe)
          06092517523D

 34 26  0     0  0            999 V2000
   -1.1115   -0.3568    1.0980 C   0  0  0  0  0  0  0  0  0  0  0  0
   -1.4479    0.2241    2.4849 C   0  0  0  0  0  0  0  0  0  0  0  0
   -0.7359   -0.1290    3.4581 O   0  0  0  0  0  0  0  0  0  0  0  0
   -2.3926    1.0352    2.5660 O   0  0  0  0  0  0  0  0  0  0  0  0
   -0.1046    0.5520    0.4004 C   0  0  0  0  0  0  0  0  0  0  0  0
    0.1875    0.0709   -0.9634 N   0  0  0  0  0  0  0  0  0  0  0  0
   -0.7062   -1.3599    1.2233 H   0  0  0  0  0  0  0  0  0  0  0  0
   -2.0417   -0.3958    0.5305 H   0  0  0  0  0  0  0  0  0  0  0  0
   -0.5214    1.5588    0.3432 H   0  0  0  0  0  0  0  0  0  0  0  0
    0.8229    0.5838    0.9729 H   0  0  0  0  0  0  0  0  0  0  0  0
   -0.6771    0.0147   -1.5032 H   0  0  0  0  0  0  0  0  0  0  0  0
    0.6293   -0.8849   -0.9427 H   0  0  0  0  0  0  0  0  0  0  0  0
    0.8415    0.7378   -1.4389 H   0  0  0  0  0  0  0  0  0  0  0  0
    2.3519    2.0958   -4.8491 O   0  0  0  0  0  0  0  0  0  0  0  0
    3.0434    2.6592   -5.2087 H   0  0  0  0  0  0  0  0  0  0  0  0
    2.2789    1.3264   -5.4216 H   0  0  0  0  0  0  0  0  0  0  0  0
    0.2095   -3.6646    1.2300 O   0  0  0  0  0  0  0  0  0  0  0  0
   -0.1533   -4.5335    1.4181 H   0  0  0  0  0  0  0  0  0  0  0  0
    0.4635   -3.2754    2.0934 H   0  0  0  0  0  0  0  0  0  0  0  0
    0.8289   -2.3967    3.5531 O   0  0  0  0  0  0  0  0  0  0  0  0
    0.1649   -1.6815    3.6060 H   0  0  0  0  0  0  0  0  0  0  0  0
    1.6754   -1.9320    3.5304 H   0  0  0  0  0  0  0  0  0  0  0  0
    1.9711    0.3921    3.1630 O   0  0  0  0  0  0  0  0  0  0  0  0
    1.0172    0.2837    3.3287 H   0  0  0  0  0  0  0  0  0  0  0  0
    2.2744    1.0702    3.7726 H   0  0  0  0  0  0  0  0  0  0  0  0
   -2.7091    2.6437    0.3633 O   0  0  0  0  0  0  0  0  0  0  0  0
   -2.6700    2.0903    1.1688 H   0  0  0  0  0  0  0  0  0  0  0  0
   -3.4066    3.2855    0.5205 H   0  0  0  0  0  0  0  0  0  0  0  0
    1.3272   -2.4037   -0.9529 O   0  0  0  0  0  0  0  0  0  0  0  0
    2.2756   -2.4406   -0.7964 H   0  0  0  0  0  0  0  0  0  0  0  0
    0.9069   -2.9174   -0.2408 H   0  0  0  0  0  0  0  0  0  0  0  0
    1.7823    1.9728   -2.1130 O   0  0  0  0  0  0  0  0  0  0  0  0
    1.9907    1.9431   -3.0628 H   0  0  0  0  0  0  0  0  0  0  0  0
    1.4547    2.8584   -1.9355 H   0  0  0  0  0  0  0  0  0  0  0  0
  1  2  1  0  0  0  0
  2  3  4  0  0  0  0
  2  4  4  0  0  0  0
  1  5  1  0  0  0  0
  5  6  1  0  0  0  0
  1  7  1  0  0  0  0
  1  8  1  0  0  0  0
  5  9  1  0  0  0  0
  5 10  1  0  0  0  0
  6 11  1  0  0  0  0
  6 12  1  0  0  0  0
  6 13  1  0  0  0  0
 14 15  1  0  0  0  0
 14 16  1  0  0  0  0
 17 18  1  0  0  0  0
 17 19  1  0  0  0  0
 20 21  1  0  0  0  0
 20 22  1  0  0  0  0
 23 24  1  0  0  0  0
 23 25  1  0  0  0  0
 26 27  1  0  0  0  0
 26 28  1  0  0  0  0
 29 30  1  0  0  0  0
 29 31  1  0  0  0  0
 32 33  1  0  0  0  0
 32 34  1  0  0  0  0
M  END
