 xtb: 6.7.1 (edcfbbe)
          06092517583D

 34 26  0     0  0            999 V2000
    2.1591   -0.7679   -0.0128 H   0  0  0  0  0  0  0  0  0  0  0  0
    1.2939   -1.0826    0.5728 C   0  0  0  0  0  0  0  0  0  0  0  0
    0.4833   -1.7556   -1.2263 H   0  0  0  0  0  0  0  0  0  0  0  0
    1.5318   -2.0065    1.1020 H   0  0  0  0  0  0  0  0  0  0  0  0
    0.1581   -1.3120   -0.3413 N   0  0  0  0  0  0  0  0  0  0  0  0
    1.7795    0.2021    2.2519 H   0  0  0  0  0  0  0  0  0  0  0  0
    0.9429    0.0068    1.5821 C   0  0  0  0  0  0  0  0  0  0  0  0
   -0.1831    1.3109   -0.0947 O   0  0  0  0  0  0  0  0  0  0  0  0
    0.5559    1.3543    0.9233 C   0  0  0  0  0  0  0  0  0  0  0  0
   -0.2301   -0.3592   -0.5287 H   0  0  0  0  0  0  0  0  0  0  0  0
    0.9840    2.3990    1.4509 O   0  0  0  0  0  0  0  0  0  0  0  0
   -0.5681   -1.9118    0.1074 H   0  0  0  0  0  0  0  0  0  0  0  0
    0.0889   -0.3039    2.1878 H   0  0  0  0  0  0  0  0  0  0  0  0
    0.6259   -3.6751    2.6442 O   0  0  0  0  0  0  0  0  0  0  0  0
    0.8852   -4.3028    3.3234 H   0  0  0  0  0  0  0  0  0  0  0  0
    0.1341   -2.9674    3.0901 H   0  0  0  0  0  0  0  0  0  0  0  0
   -1.4102   -1.7708    3.3192 O   0  0  0  0  0  0  0  0  0  0  0  0
   -2.1728   -1.6843    3.8965 H   0  0  0  0  0  0  0  0  0  0  0  0
   -1.7378   -2.1243    2.4726 H   0  0  0  0  0  0  0  0  0  0  0  0
    3.6072   -0.8296   -2.1638 O   0  0  0  0  0  0  0  0  0  0  0  0
    4.5232   -1.1252   -2.1467 H   0  0  0  0  0  0  0  0  0  0  0  0
    3.6036    0.0753   -2.4872 H   0  0  0  0  0  0  0  0  0  0  0  0
   -1.5127   -3.1308    0.8836 O   0  0  0  0  0  0  0  0  0  0  0  0
   -0.7869   -3.6304    1.2925 H   0  0  0  0  0  0  0  0  0  0  0  0
   -2.0015   -3.7614    0.3206 H   0  0  0  0  0  0  0  0  0  0  0  0
    1.3557   -2.4543   -2.5482 O   0  0  0  0  0  0  0  0  0  0  0  0
    2.1565   -1.9054   -2.5139 H   0  0  0  0  0  0  0  0  0  0  0  0
    1.6375   -3.3634   -2.4052 H   0  0  0  0  0  0  0  0  0  0  0  0
   -3.1735   -4.0144   -3.3613 O   0  0  0  0  0  0  0  0  0  0  0  0
   -3.2785   -3.0643   -3.4759 H   0  0  0  0  0  0  0  0  0  0  0  0
   -2.5814   -4.3201   -4.0554 H   0  0  0  0  0  0  0  0  0  0  0  0
   -2.8819   -4.8964   -0.7261 O   0  0  0  0  0  0  0  0  0  0  0  0
   -2.9504   -4.6181   -1.6575 H   0  0  0  0  0  0  0  0  0  0  0  0
   -3.7554   -5.2092   -0.4756 H   0  0  0  0  0  0  0  0  0  0  0  0
  1  2  1  0  0  0  0
  2  4  1  0  0  0  0
  2  5  1  0  0  0  0
  3  5  1  0  0  0  0
  2  7  1  0  0  0  0
  6  7  1  0  0  0  0
  7  9  1  0  0  0  0
  8  9  4  0  0  0  0
  5 10  1  0  0  0  0
  9 11  2  0  0  0  0
  5 12  1  0  0  0  0
  7 13  1  0  0  0  0
 14 15  1  0  0  0  0
 14 16  1  0  0  0  0
 17 18  1  0  0  0  0
 17 19  1  0  0  0  0
 20 21  1  0  0  0  0
 20 22  1  0  0  0  0
 23 24  1  0  0  0  0
 23 25  1  0  0  0  0
 26 27  1  0  0  0  0
 26 28  1  0  0  0  0
 29 30  1  0  0  0  0
 29 31  1  0  0  0  0
 32 33  1  0  0  0  0
 32 34  1  0  0  0  0
M  END
