 xtb: 6.7.1 (edcfbbe)
          06092518063D

 37 29  0     0  0            999 V2000
   -1.1501   -0.6227    0.5473 N   0  0  0  0  0  0  0  0  0  0  0  0
    0.1093   -0.2632   -0.1336 C   0  0  0  0  0  0  0  0  0  0  0  0
    0.0121    1.0859   -0.8459 C   0  0  0  0  0  0  0  0  0  0  0  0
   -1.2900    1.2981   -1.6355 C   0  0  0  0  0  0  0  0  0  0  0  0
   -1.7484    0.0594   -2.4309 C   0  0  0  0  0  0  0  0  0  0  0  0
   -1.4733   -0.0082   -3.6465 O   0  0  0  0  0  0  0  0  0  0  0  0
   -2.3998   -0.8091   -1.8003 O   0  0  0  0  0  0  0  0  0  0  0  0
   -1.0383   -1.5208    1.0703 H   0  0  0  0  0  0  0  0  0  0  0  0
   -1.4512    0.1138    1.1855 H   0  0  0  0  0  0  0  0  0  0  0  0
    0.9180   -0.2266    0.5953 H   0  0  0  0  0  0  0  0  0  0  0  0
    0.3354   -1.0430   -0.8645 H   0  0  0  0  0  0  0  0  0  0  0  0
    0.8573    1.1537   -1.5300 H   0  0  0  0  0  0  0  0  0  0  0  0
    0.0996    1.9018   -0.1260 H   0  0  0  0  0  0  0  0  0  0  0  0
   -2.1087    1.5607   -0.9621 H   0  0  0  0  0  0  0  0  0  0  0  0
   -1.1544    2.1161   -2.3441 H   0  0  0  0  0  0  0  0  0  0  0  0
   -1.8661   -0.7616   -0.2153 H   0  0  0  0  0  0  0  0  0  0  0  0
    2.8339   -0.7395   -4.1566 O   0  0  0  0  0  0  0  0  0  0  0  0
    3.2583    0.1100   -3.9139 H   0  0  0  0  0  0  0  0  0  0  0  0
    3.5149   -1.2522   -4.6037 H   0  0  0  0  0  0  0  0  0  0  0  0
    4.0936    2.2569   -0.8474 O   0  0  0  0  0  0  0  0  0  0  0  0
    4.6232    1.6516   -0.3190 H   0  0  0  0  0  0  0  0  0  0  0  0
    4.2399    3.1427   -0.4998 H   0  0  0  0  0  0  0  0  0  0  0  0
    4.0316    1.6516   -3.5666 O   0  0  0  0  0  0  0  0  0  0  0  0
    4.0502    1.8672   -2.6158 H   0  0  0  0  0  0  0  0  0  0  0  0
    3.7053    2.4348   -4.0195 H   0  0  0  0  0  0  0  0  0  0  0  0
    1.1680   -2.2909   -2.4293 O   0  0  0  0  0  0  0  0  0  0  0  0
    1.7894   -1.7610   -2.9548 H   0  0  0  0  0  0  0  0  0  0  0  0
    0.4771   -2.5612   -3.0612 H   0  0  0  0  0  0  0  0  0  0  0  0
   -0.8416   -3.0421    1.8341 O   0  0  0  0  0  0  0  0  0  0  0  0
   -0.1726   -3.5885    1.4104 H   0  0  0  0  0  0  0  0  0  0  0  0
   -1.6452   -3.5681    1.8923 H   0  0  0  0  0  0  0  0  0  0  0  0
   -0.7753   -2.5871   -4.4274 O   0  0  0  0  0  0  0  0  0  0  0  0
   -1.2810   -1.8283   -4.0823 H   0  0  0  0  0  0  0  0  0  0  0  0
   -0.2858   -2.2034   -5.1747 H   0  0  0  0  0  0  0  0  0  0  0  0
    0.5231   -0.4166   -5.7090 O   0  0  0  0  0  0  0  0  0  0  0  0
    1.3381   -0.4852   -5.1745 H   0  0  0  0  0  0  0  0  0  0  0  0
   -0.1507   -0.0739   -5.1036 H   0  0  0  0  0  0  0  0  0  0  0  0
  1  2  1  0  0  0  0
  2  3  1  0  0  0  0
  3  4  1  0  0  0  0
  4  5  1  0  0  0  0
  5  6  4  0  0  0  0
  5  7  4  0  0  0  0
  1  8  1  0  0  0  0
  1  9  1  0  0  0  0
  2 10  1  0  0  0  0
  2 11  1  0  0  0  0
  3 12  1  0  0  0  0
  3 13  1  0  0  0  0
  4 14  1  0  0  0  0
  4 15  1  0  0  0  0
  1 16  1  0  0  0  0
 17 18  1  0  0  0  0
 17 19  1  0  0  0  0
 20 21  1  0  0  0  0
 20 22  1  0  0  0  0
 23 24  1  0  0  0  0
 23 25  1  0  0  0  0
 26 27  1  0  0  0  0
 26 28  1  0  0  0  0
 29 30  1  0  0  0  0
 29 31  1  0  0  0  0
 32 33  1  0  0  0  0
 32 34  1  0  0  0  0
 35 36  1  0  0  0  0
 35 37  1  0  0  0  0
M  END
