 xtb: 6.7.1 (edcfbbe)
          06092517533D

 34 26  0     0  0            999 V2000
    1.5562   -0.5006    1.3069 C   0  0  0  0  0  0  0  0  0  0  0  0
    1.4997    0.2547    2.6418 C   0  0  0  0  0  0  0  0  0  0  0  0
    1.1419   -0.3789    3.6591 O   0  0  0  0  0  0  0  0  0  0  0  0
    1.7861    1.4768    2.6382 O   0  0  0  0  0  0  0  0  0  0  0  0
    0.3620   -0.1080    0.4411 C   0  0  0  0  0  0  0  0  0  0  0  0
    0.2192   -1.0522   -0.6832 N   0  0  0  0  0  0  0  0  0  0  0  0
    2.4896   -0.2519    0.8033 H   0  0  0  0  0  0  0  0  0  0  0  0
    1.5302   -1.5673    1.5231 H   0  0  0  0  0  0  0  0  0  0  0  0
   -0.5449   -0.1319    1.0487 H   0  0  0  0  0  0  0  0  0  0  0  0
    0.5072    0.9043    0.0622 H   0  0  0  0  0  0  0  0  0  0  0  0
    0.0279   -2.0089   -0.3029 H   0  0  0  0  0  0  0  0  0  0  0  0
    1.1046   -1.0894   -1.2526 H   0  0  0  0  0  0  0  0  0  0  0  0
   -0.5527   -0.7762   -1.2906 H   0  0  0  0  0  0  0  0  0  0  0  0
   -0.4458   -3.4053    0.5711 O   0  0  0  0  0  0  0  0  0  0  0  0
   -1.3103   -3.8178    0.4875 H   0  0  0  0  0  0  0  0  0  0  0  0
   -0.3013   -3.2561    1.5220 H   0  0  0  0  0  0  0  0  0  0  0  0
    1.1138    0.6992    6.2733 O   0  0  0  0  0  0  0  0  0  0  0  0
    1.1178    0.2326    5.4172 H   0  0  0  0  0  0  0  0  0  0  0  0
    1.2932    1.6253    6.0375 H   0  0  0  0  0  0  0  0  0  0  0  0
   -0.0433   -2.8228    3.2536 O   0  0  0  0  0  0  0  0  0  0  0  0
    0.2002   -3.3936    3.9871 H   0  0  0  0  0  0  0  0  0  0  0  0
    0.3483   -1.9478    3.4495 H   0  0  0  0  0  0  0  0  0  0  0  0
    3.9598    0.8663   -0.8915 O   0  0  0  0  0  0  0  0  0  0  0  0
    3.3657    1.5682   -0.5591 H   0  0  0  0  0  0  0  0  0  0  0  0
    4.8593    1.1629   -0.7362 H   0  0  0  0  0  0  0  0  0  0  0  0
    1.4822    3.1064    4.8304 O   0  0  0  0  0  0  0  0  0  0  0  0
    1.6436    2.5221    4.0589 H   0  0  0  0  0  0  0  0  0  0  0  0
    0.7110    3.6364    4.6027 H   0  0  0  0  0  0  0  0  0  0  0  0
    2.2782    2.7017    0.2635 O   0  0  0  0  0  0  0  0  0  0  0  0
    2.1252    2.2939    1.1433 H   0  0  0  0  0  0  0  0  0  0  0  0
    2.4829    3.6267    0.4251 H   0  0  0  0  0  0  0  0  0  0  0  0
    2.4748   -1.0411   -2.2088 O   0  0  0  0  0  0  0  0  0  0  0  0
    3.0975   -0.4488   -1.7536 H   0  0  0  0  0  0  0  0  0  0  0  0
    2.4130   -0.7267   -3.1156 H   0  0  0  0  0  0  0  0  0  0  0  0
  1  2  1  0  0  0  0
  2  3  4  0  0  0  0
  2  4  4  0  0  0  0
  1  5  1  0  0  0  0
  5  6  1  0  0  0  0
  1  7  1  0  0  0  0
  1  8  1  0  0  0  0
  5  9  1  0  0  0  0
  5 10  1  0  0  0  0
  6 11  1  0  0  0  0
  6 12  1  0  0  0  0
  6 13  1  0  0  0  0
 14 15  1  0  0  0  0
 14 16  1  0  0  0  0
 17 18  1  0  0  0  0
 17 19  1  0  0  0  0
 20 21  1  0  0  0  0
 20 22  1  0  0  0  0
 23 24  1  0  0  0  0
 23 25  1  0  0  0  0
 26 27  1  0  0  0  0
 26 28  1  0  0  0  0
 29 30  1  0  0  0  0
 29 31  1  0  0  0  0
 32 33  1  0  0  0  0
 32 34  1  0  0  0  0
M  END
