          37
  Built with Packmol                                             
  N            0.064952       -0.170366        2.240690
  C           -0.425087       -0.283877        0.868279
  C            0.367730        0.641149       -0.071166
  C           -0.134429        0.597594       -1.523145
  C            0.096668       -0.713488       -2.230733
  O            0.727246       -1.739965       -1.628533
  O           -0.270635       -0.838959       -3.387000
  H            1.072330       -0.447205        2.286531
  H           -0.048728        0.810713        2.583748
  H           -1.501047       -0.002735        0.840683
  H           -0.338388       -1.340879        0.545678
  H            1.449826        0.389794       -0.041707
  H            0.245710        1.683089        0.295720
  H           -1.217927        0.840241       -1.535888
  H            0.400055        1.383318       -2.098747
  H           -0.488277       -0.808425        2.855591
  O            2.135144       -3.464825        1.183464
  H            2.196859       -4.322533        1.674524
  H            2.465402       -2.787057        1.825471
  O           -2.190703       -3.466907        1.385298
  H           -2.113111       -2.551674        1.015245
  H           -2.325843       -3.331067        2.356842
  O           -0.788838       -3.620026        5.063134
  H           -1.238455       -2.853895        5.500738
  H           -1.459927       -3.969714        4.424409
  O           -0.764355       -4.789529       -0.274470
  H           -0.994135       -5.144193        0.621089
  H           -0.599771       -3.824635       -0.124453
  O            2.512549       -3.384522        4.940887
  H            2.014663       -2.545096        4.773299
  H            1.944401       -4.093006        4.546082
  O           -0.601230        3.386169        4.516502
  H           -1.424285        2.840379        4.443668
  H           -0.006361        3.033849        3.807548
  O            0.378551       -3.925293        2.867965
  H           -0.051720       -3.715691        2.001048
  H            0.437117       -3.053078        3.333178
