 xtb: 6.7.1 (edcfbbe)
          06092518033D

 37 29  0     0  0            999 V2000
    0.5836   -0.4121    2.3156 N   0  0  0  0  0  0  0  0  0  0  0  0
   -0.1293   -0.7290    1.0692 C   0  0  0  0  0  0  0  0  0  0  0  0
    0.2332    0.2077   -0.0750 C   0  0  0  0  0  0  0  0  0  0  0  0
   -0.6727   -0.0417   -1.2859 C   0  0  0  0  0  0  0  0  0  0  0  0
   -0.5634   -1.4913   -1.8043 C   0  0  0  0  0  0  0  0  0  0  0  0
   -1.2098   -2.3715   -1.1757 O   0  0  0  0  0  0  0  0  0  0  0  0
    0.1504   -1.7130   -2.7993 O   0  0  0  0  0  0  0  0  0  0  0  0
    1.6126   -0.5417    2.2045 H   0  0  0  0  0  0  0  0  0  0  0  0
    0.3908    0.5603    2.6133 H   0  0  0  0  0  0  0  0  0  0  0  0
   -1.2036   -0.6671    1.2468 H   0  0  0  0  0  0  0  0  0  0  0  0
    0.1031   -1.7526    0.7799 H   0  0  0  0  0  0  0  0  0  0  0  0
    1.2712    0.0579   -0.3767 H   0  0  0  0  0  0  0  0  0  0  0  0
    0.1080    1.2446    0.2427 H   0  0  0  0  0  0  0  0  0  0  0  0
   -1.7163    0.1322   -1.0154 H   0  0  0  0  0  0  0  0  0  0  0  0
   -0.3964    0.6202   -2.1082 H   0  0  0  0  0  0  0  0  0  0  0  0
    0.2582   -1.0982    3.0320 H   0  0  0  0  0  0  0  0  0  0  0  0
    3.2356   -1.1507    2.3071 O   0  0  0  0  0  0  0  0  0  0  0  0
    3.6820   -1.6125    1.5944 H   0  0  0  0  0  0  0  0  0  0  0  0
    3.0455   -1.8277    2.9949 H   0  0  0  0  0  0  0  0  0  0  0  0
   -1.5065   -3.7035    1.3747 O   0  0  0  0  0  0  0  0  0  0  0  0
   -1.6233   -3.1429    0.5920 H   0  0  0  0  0  0  0  0  0  0  0  0
   -1.1932   -4.5408    1.0139 H   0  0  0  0  0  0  0  0  0  0  0  0
   -2.3894   -2.5010    5.5671 O   0  0  0  0  0  0  0  0  0  0  0  0
   -2.2818   -2.3494    6.5125 H   0  0  0  0  0  0  0  0  0  0  0  0
   -3.1301   -3.1050    5.4475 H   0  0  0  0  0  0  0  0  0  0  0  0
   -0.5897   -5.0320   -1.1511 O   0  0  0  0  0  0  0  0  0  0  0  0
    0.0105   -5.2557   -1.8671 H   0  0  0  0  0  0  0  0  0  0  0  0
   -0.8293   -4.0889   -1.2882 H   0  0  0  0  0  0  0  0  0  0  0  0
    2.3653   -2.9561    4.1542 O   0  0  0  0  0  0  0  0  0  0  0  0
    2.4695   -2.7913    5.0947 H   0  0  0  0  0  0  0  0  0  0  0  0
    1.4028   -2.9687    3.9852 H   0  0  0  0  0  0  0  0  0  0  0  0
    0.0671    2.2676    2.9890 O   0  0  0  0  0  0  0  0  0  0  0  0
   -0.7134    2.5585    3.4690 H   0  0  0  0  0  0  0  0  0  0  0  0
    0.8125    2.7880    3.3026 H   0  0  0  0  0  0  0  0  0  0  0  0
   -0.3408   -2.5968    3.6740 O   0  0  0  0  0  0  0  0  0  0  0  0
   -0.7468   -3.0337    2.9033 H   0  0  0  0  0  0  0  0  0  0  0  0
   -1.0404   -2.5445    4.3485 H   0  0  0  0  0  0  0  0  0  0  0  0
  1  2  1  0  0  0  0
  2  3  1  0  0  0  0
  3  4  1  0  0  0  0
  4  5  1  0  0  0  0
  5  6  4  0  0  0  0
  5  7  2  0  0  0  0
  1  8  1  0  0  0  0
  1  9  1  0  0  0  0
  2 10  1  0  0  0  0
  2 11  1  0  0  0  0
  3 12  1  0  0  0  0
  3 13  1  0  0  0  0
  4 14  1  0  0  0  0
  4 15  1  0  0  0  0
  1 16  1  0  0  0  0
 17 18  1  0  0  0  0
 17 19  1  0  0  0  0
 20 21  1  0  0  0  0
 20 22  1  0  0  0  0
 23 24  1  0  0  0  0
 23 25  1  0  0  0  0
 26 27  1  0  0  0  0
 26 28  1  0  0  0  0
 29 30  1  0  0  0  0
 29 31  1  0  0  0  0
 32 33  1  0  0  0  0
 32 34  1  0  0  0  0
 35 36  1  0  0  0  0
 35 37  1  0  0  0  0
M  END
