 xtb: 6.7.1 (edcfbbe)
          06092517543D

 34 26  0     0  0            999 V2000
   -0.0213   -0.3717    0.8270 C   0  0  0  0  0  0  0  0  0  0  0  0
    0.1865    0.5940    2.0112 C   0  0  0  0  0  0  0  0  0  0  0  0
    0.5811    0.0624    3.0896 O   0  0  0  0  0  0  0  0  0  0  0  0
   -0.0379    1.8036    1.8587 O   0  0  0  0  0  0  0  0  0  0  0  0
   -0.5153    0.3417   -0.4178 C   0  0  0  0  0  0  0  0  0  0  0  0
   -0.7641   -0.6293   -1.5018 N   0  0  0  0  0  0  0  0  0  0  0  0
    0.9350   -0.8679    0.6524 H   0  0  0  0  0  0  0  0  0  0  0  0
   -0.7347   -1.1242    1.1656 H   0  0  0  0  0  0  0  0  0  0  0  0
   -1.4297    0.8839   -0.1756 H   0  0  0  0  0  0  0  0  0  0  0  0
    0.2313    1.0725   -0.7285 H   0  0  0  0  0  0  0  0  0  0  0  0
   -1.4849   -1.3185   -1.2018 H   0  0  0  0  0  0  0  0  0  0  0  0
    0.1137   -1.1522   -1.7152 H   0  0  0  0  0  0  0  0  0  0  0  0
   -1.0861   -0.1597   -2.3495 H   0  0  0  0  0  0  0  0  0  0  0  0
    2.1607   -6.1463    1.0867 O   0  0  0  0  0  0  0  0  0  0  0  0
    1.5208   -5.5930    1.5465 H   0  0  0  0  0  0  0  0  0  0  0  0
    3.0162   -5.7163    1.1829 H   0  0  0  0  0  0  0  0  0  0  0  0
   -0.9602   -2.1511    3.6363 O   0  0  0  0  0  0  0  0  0  0  0  0
   -0.6333   -2.5690    4.4386 H   0  0  0  0  0  0  0  0  0  0  0  0
   -0.4042   -1.3583    3.5048 H   0  0  0  0  0  0  0  0  0  0  0  0
    2.9341   -1.3130    2.7966 O   0  0  0  0  0  0  0  0  0  0  0  0
    3.4811   -1.1106    3.5615 H   0  0  0  0  0  0  0  0  0  0  0  0
    2.0992   -0.8238    2.9322 H   0  0  0  0  0  0  0  0  0  0  0  0
   -0.2922    2.4087    7.6092 O   0  0  0  0  0  0  0  0  0  0  0  0
   -0.4226    2.7747    6.7289 H   0  0  0  0  0  0  0  0  0  0  0  0
    0.0282    1.5091    7.4898 H   0  0  0  0  0  0  0  0  0  0  0  0
    1.5729   -2.0068   -2.0541 O   0  0  0  0  0  0  0  0  0  0  0  0
    2.3323   -1.6217   -2.4994 H   0  0  0  0  0  0  0  0  0  0  0  0
    1.5417   -2.9404   -2.2843 H   0  0  0  0  0  0  0  0  0  0  0  0
   -2.7328   -2.4414   -0.7128 O   0  0  0  0  0  0  0  0  0  0  0  0
   -2.5451   -3.3524   -0.4699 H   0  0  0  0  0  0  0  0  0  0  0  0
   -3.5496   -2.1868   -0.2762 H   0  0  0  0  0  0  0  0  0  0  0  0
    0.0669   -1.7284   -6.5106 O   0  0  0  0  0  0  0  0  0  0  0  0
   -0.5536   -2.4407   -6.6940 H   0  0  0  0  0  0  0  0  0  0  0  0
    0.1953   -1.2437   -7.3307 H   0  0  0  0  0  0  0  0  0  0  0  0
  1  2  1  0  0  0  0
  2  3  4  0  0  0  0
  2  4  2  0  0  0  0
  1  5  1  0  0  0  0
  5  6  1  0  0  0  0
  1  7  1  0  0  0  0
  1  8  1  0  0  0  0
  5  9  1  0  0  0  0
  5 10  1  0  0  0  0
  6 11  1  0  0  0  0
  6 12  1  0  0  0  0
  6 13  1  0  0  0  0
 14 15  1  0  0  0  0
 14 16  1  0  0  0  0
 17 18  1  0  0  0  0
 17 19  1  0  0  0  0
 20 21  1  0  0  0  0
 20 22  1  0  0  0  0
 23 24  1  0  0  0  0
 23 25  1  0  0  0  0
 26 27  1  0  0  0  0
 26 28  1  0  0  0  0
 29 30  1  0  0  0  0
 29 31  1  0  0  0  0
 32 33  1  0  0  0  0
 32 34  1  0  0  0  0
M  END
