16

N          1.55717       -0.08904        0.48346
C          2.96671        0.10626        0.14920
C          3.11967        0.73867       -1.23952
C          4.60047        0.94651       -1.58725
C          4.80813        1.59352       -2.93081
O          3.86326        1.91158       -3.63638
O          6.06142        1.83130       -3.35999
H          1.05653        0.82916        0.47952
H          1.11230       -0.73982       -0.20362
H          3.48777       -0.87565        0.17173
H          3.43433        0.76927        0.91030
H          2.59848        1.71954       -1.24806
H          2.65078        0.07634       -2.00009
H          5.11401       -0.03773       -1.58833
H          5.07208        1.59258       -0.81635
H          1.48743       -0.50722        1.43861

