 xtb: 6.7.1 (edcfbbe)
          06092517523D

 34 26  0     0  0            999 V2000
   -0.2370   -0.7001    1.5591 C   0  0  0  0  0  0  0  0  0  0  0  0
   -0.3029    0.1375    2.8496 C   0  0  0  0  0  0  0  0  0  0  0  0
    0.2129   -0.3315    3.8856 O   0  0  0  0  0  0  0  0  0  0  0  0
   -0.9009    1.2399    2.7880 O   0  0  0  0  0  0  0  0  0  0  0  0
    0.1994    0.1441    0.3723 C   0  0  0  0  0  0  0  0  0  0  0  0
   -0.0216   -0.5871   -0.8920 N   0  0  0  0  0  0  0  0  0  0  0  0
    0.4358   -1.5384    1.7364 H   0  0  0  0  0  0  0  0  0  0  0  0
   -1.2459   -1.0815    1.3939 H   0  0  0  0  0  0  0  0  0  0  0  0
   -0.3842    1.0660    0.3637 H   0  0  0  0  0  0  0  0  0  0  0  0
    1.2542    0.4039    0.4811 H   0  0  0  0  0  0  0  0  0  0  0  0
   -1.0849   -0.6685   -1.0978 H   0  0  0  0  0  0  0  0  0  0  0  0
    0.3737   -1.5280   -0.8281 H   0  0  0  0  0  0  0  0  0  0  0  0
    0.3983   -0.0883   -1.6784 H   0  0  0  0  0  0  0  0  0  0  0  0
   -2.7166   -2.5539   -3.5742 O   0  0  0  0  0  0  0  0  0  0  0  0
   -3.0807   -3.4264   -3.3854 H   0  0  0  0  0  0  0  0  0  0  0  0
   -3.0300   -2.2897   -4.4444 H   0  0  0  0  0  0  0  0  0  0  0  0
   -0.3310    3.5724    4.1843 O   0  0  0  0  0  0  0  0  0  0  0  0
   -0.4920    2.7399    3.7011 H   0  0  0  0  0  0  0  0  0  0  0  0
   -0.9780    3.5942    4.8949 H   0  0  0  0  0  0  0  0  0  0  0  0
   -0.0676   -3.0015    4.0802 O   0  0  0  0  0  0  0  0  0  0  0  0
   -0.0608   -3.2478    5.0076 H   0  0  0  0  0  0  0  0  0  0  0  0
    0.0951   -2.0365    4.0589 H   0  0  0  0  0  0  0  0  0  0  0  0
   -3.6844   -1.7150    0.7773 O   0  0  0  0  0  0  0  0  0  0  0  0
   -3.1823   -2.3724    1.2891 H   0  0  0  0  0  0  0  0  0  0  0  0
   -3.7399   -0.9174    1.3322 H   0  0  0  0  0  0  0  0  0  0  0  0
   -2.1186   -3.5307    2.2766 O   0  0  0  0  0  0  0  0  0  0  0  0
   -2.4903   -4.3563    2.5885 H   0  0  0  0  0  0  0  0  0  0  0  0
   -1.3880   -3.3157    2.8856 H   0  0  0  0  0  0  0  0  0  0  0  0
   -3.5335    0.7237    2.1281 O   0  0  0  0  0  0  0  0  0  0  0  0
   -3.9286    1.5341    1.7920 H   0  0  0  0  0  0  0  0  0  0  0  0
   -2.6215    0.9538    2.3833 H   0  0  0  0  0  0  0  0  0  0  0  0
   -2.5768   -0.7250   -1.4815 O   0  0  0  0  0  0  0  0  0  0  0  0
   -2.6811   -1.3509   -2.2211 H   0  0  0  0  0  0  0  0  0  0  0  0
   -3.0604   -1.1078   -0.7181 H   0  0  0  0  0  0  0  0  0  0  0  0
  1  2  1  0  0  0  0
  2  3  4  0  0  0  0
  2  4  4  0  0  0  0
  1  5  1  0  0  0  0
  5  6  1  0  0  0  0
  1  7  1  0  0  0  0
  1  8  1  0  0  0  0
  5  9  1  0  0  0  0
  5 10  1  0  0  0  0
  6 11  1  0  0  0  0
  6 12  1  0  0  0  0
  6 13  1  0  0  0  0
 14 15  1  0  0  0  0
 14 16  1  0  0  0  0
 17 18  1  0  0  0  0
 17 19  1  0  0  0  0
 20 21  1  0  0  0  0
 20 22  1  0  0  0  0
 23 24  1  0  0  0  0
 23 25  1  0  0  0  0
 26 27  1  0  0  0  0
 26 28  1  0  0  0  0
 29 30  1  0  0  0  0
 29 31  1  0  0  0  0
 32 33  1  0  0  0  0
 32 34  1  0  0  0  0
M  END
