 xtb: 6.7.1 (edcfbbe)
          06092518053D

 37 29  0     0  0            999 V2000
   -0.7536   -0.7774    1.7757 N   0  0  0  0  0  0  0  0  0  0  0  0
    0.6262   -0.3765    1.4756 C   0  0  0  0  0  0  0  0  0  0  0  0
    0.6645    0.8430    0.5540 C   0  0  0  0  0  0  0  0  0  0  0  0
   -0.2836    0.7476   -0.6522 C   0  0  0  0  0  0  0  0  0  0  0  0
   -0.2773   -0.6284   -1.3573 C   0  0  0  0  0  0  0  0  0  0  0  0
    0.3977   -0.7699   -2.3929 O   0  0  0  0  0  0  0  0  0  0  0  0
   -0.9879   -1.5263   -0.8307 O   0  0  0  0  0  0  0  0  0  0  0  0
   -0.7933   -1.6369    2.3649 H   0  0  0  0  0  0  0  0  0  0  0  0
   -1.3150   -0.0292    2.2400 H   0  0  0  0  0  0  0  0  0  0  0  0
    1.1593   -0.1519    2.3998 H   0  0  0  0  0  0  0  0  0  0  0  0
    1.1234   -1.2100    0.9746 H   0  0  0  0  0  0  0  0  0  0  0  0
    1.6865    0.9600    0.1905 H   0  0  0  0  0  0  0  0  0  0  0  0
    0.4028    1.7402    1.1158 H   0  0  0  0  0  0  0  0  0  0  0  0
   -1.3128    0.9462   -0.3488 H   0  0  0  0  0  0  0  0  0  0  0  0
    0.0065    1.4916   -1.3960 H   0  0  0  0  0  0  0  0  0  0  0  0
   -1.1831   -1.0294    0.8588 H   0  0  0  0  0  0  0  0  0  0  0  0
   -3.5516    1.6311   -0.2552 O   0  0  0  0  0  0  0  0  0  0  0  0
   -3.4843    2.2727    0.4862 H   0  0  0  0  0  0  0  0  0  0  0  0
   -4.0614    2.0619   -0.9447 H   0  0  0  0  0  0  0  0  0  0  0  0
   -2.8594   -2.9625    0.7798 O   0  0  0  0  0  0  0  0  0  0  0  0
   -3.3975   -2.1687    0.9644 H   0  0  0  0  0  0  0  0  0  0  0  0
   -2.2746   -2.7042    0.0530 H   0  0  0  0  0  0  0  0  0  0  0  0
   -1.2085   -3.2334    2.9250 O   0  0  0  0  0  0  0  0  0  0  0  0
   -0.6266   -3.9869    2.8039 H   0  0  0  0  0  0  0  0  0  0  0  0
   -1.8915   -3.2946    2.2212 H   0  0  0  0  0  0  0  0  0  0  0  0
   -3.2549    3.1983    1.9638 O   0  0  0  0  0  0  0  0  0  0  0  0
   -3.0022    2.4260    2.5134 H   0  0  0  0  0  0  0  0  0  0  0  0
   -2.5626    3.8540    2.0793 H   0  0  0  0  0  0  0  0  0  0  0  0
   -4.1994   -0.5425    1.2604 O   0  0  0  0  0  0  0  0  0  0  0  0
   -3.9467    0.1274    0.5929 H   0  0  0  0  0  0  0  0  0  0  0  0
   -5.1597   -0.5386    1.2982 H   0  0  0  0  0  0  0  0  0  0  0  0
   -2.6000    0.7854    3.0667 O   0  0  0  0  0  0  0  0  0  0  0  0
   -2.6885    0.4515    3.9761 H   0  0  0  0  0  0  0  0  0  0  0  0
   -3.2562    0.2873    2.5385 H   0  0  0  0  0  0  0  0  0  0  0  0
   -2.8848   -0.4845    5.5299 O   0  0  0  0  0  0  0  0  0  0  0  0
   -3.5575   -1.1688    5.5935 H   0  0  0  0  0  0  0  0  0  0  0  0
   -2.1425   -0.7632    6.0737 H   0  0  0  0  0  0  0  0  0  0  0  0
  1  2  1  0  0  0  0
  2  3  1  0  0  0  0
  3  4  1  0  0  0  0
  4  5  1  0  0  0  0
  5  6  2  0  0  0  0
  5  7  4  0  0  0  0
  1  8  1  0  0  0  0
  1  9  1  0  0  0  0
  2 10  1  0  0  0  0
  2 11  1  0  0  0  0
  3 12  1  0  0  0  0
  3 13  1  0  0  0  0
  4 14  1  0  0  0  0
  4 15  1  0  0  0  0
  1 16  1  0  0  0  0
 17 18  1  0  0  0  0
 17 19  1  0  0  0  0
 20 21  1  0  0  0  0
 20 22  1  0  0  0  0
 23 24  1  0  0  0  0
 23 25  1  0  0  0  0
 26 27  1  0  0  0  0
 26 28  1  0  0  0  0
 29 30  1  0  0  0  0
 29 31  1  0  0  0  0
 32 33  1  0  0  0  0
 32 34  1  0  0  0  0
 35 36  1  0  0  0  0
 35 37  1  0  0  0  0
M  END
