46
Coordinates from ORCA-job input
  N          -0.36236631696051      0.19363208250714      1.58795717216038
  C           0.68145331899481      0.38183782787110      0.53808423462270
  C           0.17702069180997      1.14353767986068     -0.67977299726997
  C          -0.94235061593797      0.45272271888301     -1.46933659191013
  C          -0.54413483248816     -0.93003629392898     -1.96944468712078
  O           0.48208244273297     -1.02728367125638     -2.68826563198545
  O          -1.25889517892459     -1.92317360671129     -1.63047750402055
  H           0.05132784726978     -0.25860699091338      2.42441814337519
  H          -0.81501168409335      1.08035387158541      1.85751804574941
  H           1.50263644452537      0.92537809467099      1.00172173488998
  H           1.04569480151800     -0.60969272341684      0.27137002450039
  H           1.03909565976164      1.29656028625101     -1.32930992521061
  H          -0.16289858997150      2.13455930175987     -0.37049785982403
  H          -1.85424322508692      0.38276345554191     -0.87746218641380
  H          -1.17386906462996      1.06349480371668     -2.34558224648727
  H          -1.12210163412684     -0.44007355435704      1.27938508992429
  O          -1.39760068474562     -3.83589735273980     -3.70075720487692
  H          -1.31385528172754     -3.18249276672212     -2.97669250824332
  H          -0.50946987394088     -4.19524743615981     -3.81020278653472
  O          -0.61877255393087     -3.49530418480423      2.09087791112711
  H          -0.86809293825429     -4.32686767215048      2.51256928606762
  H          -0.18958373648831     -3.73034637316393      1.22810497883520
  O           1.98705407007461      0.81722938196717     -4.08030140469364
  H           2.20938343939698      1.57154822942357     -3.52288920204446
  H           1.43976837210614      0.22683652782656     -3.51914652925735
  O          -1.88458752185334      2.61557257555758      2.05815557227236
  H          -1.77892253295456      3.11041356964180      2.88179777308238
  H          -1.79401497008702      3.26816720690542      1.35061876609947
  O           0.82142196868053     -1.56535790973115      3.46187887120285
  H           0.34537807578271     -2.33387191997409      3.07710674271884
  H           0.58453205858548     -1.54927835353481      4.39713767544979
  O           3.88895601591685     -0.45091125851290     -1.12598070130623
  H           3.41148979911272     -1.26834319864340     -1.36990684753195
  H           3.38541553429655      0.25823616058869     -1.54334019002695
  O          -4.00970120894473      0.61430113445560      1.50486557395366
  H          -3.52825261403375     -0.20539605763786      1.29525445069200
  H          -3.31794646257959      1.26298458616069      1.71087346966905
  O          -2.40615522822564     -1.69960453467376      0.82635763728695
  H          -1.96318939213040     -2.40296739884658      1.34134011830470
  H          -2.11525787389925     -1.82425619690452     -0.10807963884946
  O           2.38756802441329     -2.74565482795849     -1.87134625098747
  H           2.80284159739106     -3.26323402440319     -2.57283158847842
  H           1.66355367014404     -2.22565323033073     -2.30166694873231
  O           0.28035341074025     -3.94356200567761     -0.40394168627594
  H           1.15999483646062     -3.69381027990188     -0.74582349376789
  H          -0.32114216345234     -3.33449222776176     -0.87806194875154
