 xtb: 6.7.1 (edcfbbe)
          06102519383D

 46 35  0     0  0            999 V2000
   -0.6622    0.0417    1.7022 N   0  0  0  0  0  0  0  0  0  0  0  0
    0.5518    0.0958    0.8710 C   0  0  0  0  0  0  0  0  0  0  0  0
    0.3441    0.9118   -0.4008 C   0  0  0  0  0  0  0  0  0  0  0  0
   -0.5915    0.2490   -1.4196 C   0  0  0  0  0  0  0  0  0  0  0  0
   -0.0429   -1.0753   -1.9313 C   0  0  0  0  0  0  0  0  0  0  0  0
    1.0080   -1.0688   -2.6228 O   0  0  0  0  0  0  0  0  0  0  0  0
   -0.6508   -2.1369   -1.6359 O   0  0  0  0  0  0  0  0  0  0  0  0
   -0.4374   -0.3951    2.6260 H   0  0  0  0  0  0  0  0  0  0  0  0
   -1.0575    0.9839    1.8437 H   0  0  0  0  0  0  0  0  0  0  0  0
    1.3562    0.5503    1.4502 H   0  0  0  0  0  0  0  0  0  0  0  0
    0.8521   -0.9213    0.6149 H   0  0  0  0  0  0  0  0  0  0  0  0
    1.3145    1.0790   -0.8690 H   0  0  0  0  0  0  0  0  0  0  0  0
   -0.0784    1.8835   -0.1477 H   0  0  0  0  0  0  0  0  0  0  0  0
   -1.5829    0.0910   -0.9961 H   0  0  0  0  0  0  0  0  0  0  0  0
   -0.6853    0.9074   -2.2861 H   0  0  0  0  0  0  0  0  0  0  0  0
   -1.3833   -0.5711    1.2577 H   0  0  0  0  0  0  0  0  0  0  0  0
   -2.0216   -3.7069   -3.5541 O   0  0  0  0  0  0  0  0  0  0  0  0
   -1.5182   -3.1968   -2.8989 H   0  0  0  0  0  0  0  0  0  0  0  0
   -2.9466   -3.6317   -3.2957 H   0  0  0  0  0  0  0  0  0  0  0  0
   -0.3084   -3.6257    2.2925 O   0  0  0  0  0  0  0  0  0  0  0  0
   -0.4207   -4.5491    2.5341 H   0  0  0  0  0  0  0  0  0  0  0  0
    0.3164   -3.6151    1.5462 H   0  0  0  0  0  0  0  0  0  0  0  0
    1.2986    1.2188   -4.2528 O   0  0  0  0  0  0  0  0  0  0  0  0
    2.1485    1.5401   -3.9288 H   0  0  0  0  0  0  0  0  0  0  0  0
    1.1669    0.3690   -3.7989 H   0  0  0  0  0  0  0  0  0  0  0  0
   -1.8117    2.6030    2.3572 O   0  0  0  0  0  0  0  0  0  0  0  0
   -2.1304    2.6028    3.2661 H   0  0  0  0  0  0  0  0  0  0  0  0
   -1.3263    3.4228    2.2284 H   0  0  0  0  0  0  0  0  0  0  0  0
   -0.0944   -1.4118    3.9507 O   0  0  0  0  0  0  0  0  0  0  0  0
   -0.0615   -2.2483    3.4521 H   0  0  0  0  0  0  0  0  0  0  0  0
   -0.7752   -1.5217    4.6209 H   0  0  0  0  0  0  0  0  0  0  0  0
    3.3536    0.3636   -1.9922 O   0  0  0  0  0  0  0  0  0  0  0  0
    4.0931   -0.2429   -1.8900 H   0  0  0  0  0  0  0  0  0  0  0  0
    2.5869   -0.1909   -2.2146 H   0  0  0  0  0  0  0  0  0  0  0  0
   -3.2814    1.2286    0.2676 O   0  0  0  0  0  0  0  0  0  0  0  0
   -4.2198    1.1315    0.4457 H   0  0  0  0  0  0  0  0  0  0  0  0
   -2.9317    1.8313    0.9416 H   0  0  0  0  0  0  0  0  0  0  0  0
   -2.1038   -2.0747    0.7461 O   0  0  0  0  0  0  0  0  0  0  0  0
   -1.6245   -2.7003    1.3197 H   0  0  0  0  0  0  0  0  0  0  0  0
   -1.6978   -2.1632   -0.1330 H   0  0  0  0  0  0  0  0  0  0  0  0
    2.7482   -3.1735   -2.3253 O   0  0  0  0  0  0  0  0  0  0  0  0
    2.8244   -3.6962   -3.1287 H   0  0  0  0  0  0  0  0  0  0  0  0
    2.1007   -2.4675   -2.5254 H   0  0  0  0  0  0  0  0  0  0  0  0
    1.1168   -3.5570   -0.0454 O   0  0  0  0  0  0  0  0  0  0  0  0
    1.9155   -3.6317   -0.5873 H   0  0  0  0  0  0  0  0  0  0  0  0
    0.4444   -3.1928   -0.6483 H   0  0  0  0  0  0  0  0  0  0  0  0
  1  2  1  0  0  0  0
  2  3  1  0  0  0  0
  3  4  1  0  0  0  0
  4  5  1  0  0  0  0
  5  6  4  0  0  0  0
  5  7  4  0  0  0  0
  1  8  1  0  0  0  0
  1  9  1  0  0  0  0
  2 10  1  0  0  0  0
  2 11  1  0  0  0  0
  3 12  1  0  0  0  0
  3 13  1  0  0  0  0
  4 14  1  0  0  0  0
  4 15  1  0  0  0  0
  1 16  1  0  0  0  0
 17 18  1  0  0  0  0
 17 19  1  0  0  0  0
 20 21  1  0  0  0  0
 20 22  1  0  0  0  0
 23 24  1  0  0  0  0
 23 25  1  0  0  0  0
 26 27  1  0  0  0  0
 26 28  1  0  0  0  0
 29 30  1  0  0  0  0
 29 31  1  0  0  0  0
 32 33  1  0  0  0  0
 32 34  1  0  0  0  0
 35 36  1  0  0  0  0
 35 37  1  0  0  0  0
 38 39  1  0  0  0  0
 38 40  1  0  0  0  0
 41 42  1  0  0  0  0
 41 43  1  0  0  0  0
 44 45  1  0  0  0  0
 44 46  1  0  0  0  0
M  END
