          37
  Built with Packmol                                             
  N            0.002605        0.268339        2.349498
  C            0.005610       -0.534268        1.127824
  C           -0.013605        0.360442       -0.117570
  C           -0.006580       -0.484114       -1.399583
  C            0.005309        0.346063       -2.655593
  O            0.015980        1.566588       -2.611145
  O            0.010136       -0.270580       -3.851920
  H            0.843830        0.889238        2.373417
  H           -0.867625        0.846216        2.397033
  H           -0.885896       -1.198618        1.124039
  H            0.917756       -1.170846        1.111005
  H            0.882890        1.016132       -0.103939
  H           -0.924881        0.997831       -0.099780
  H           -0.910028       -1.129127       -1.413513
  H            0.894287       -1.134110       -1.406828
  H            0.030211       -0.369186        3.177055
  O           -1.832765       -3.117996       -1.156019
  H           -2.781271       -2.885834       -0.991556
  H           -1.430386       -3.172125       -0.252816
  O            3.395341       -1.857276        4.371141
  H            4.007187       -1.528280        3.665438
  H            2.702347       -2.367095        3.880776
  O           -1.750649       -2.335248        5.325599
  H           -0.898380       -2.675217        5.697984
  H           -1.827562       -2.774096        4.441229
  O            1.876359        0.342249        4.361247
  H            2.467767        0.046469        3.624116
  H            1.829391       -0.437566        4.969766
  O           -1.681542       -2.014992       -4.886655
  H           -1.445238       -1.734820       -5.806587
  H           -2.602731       -2.369946       -4.964321
  O            3.310423       -2.276209        1.262608
  H            2.582110       -2.527794        0.640614
  H            3.053234       -1.380027        1.596261
  O           -2.584199        0.034690       -5.122144
  H           -3.224016        0.789953       -5.150852
  H           -1.733298        0.417630       -5.453712
