 xtb: 6.7.1 (edcfbbe)
          06092518023D

 37 29  0     0  0            999 V2000
    0.2677    0.5972    1.9726 N   0  0  0  0  0  0  0  0  0  0  0  0
    0.1308   -0.2939    0.8022 C   0  0  0  0  0  0  0  0  0  0  0  0
   -0.2633    0.4992   -0.4390 C   0  0  0  0  0  0  0  0  0  0  0  0
   -0.4260   -0.4087   -1.6513 C   0  0  0  0  0  0  0  0  0  0  0  0
   -0.9885    0.3316   -2.8770 C   0  0  0  0  0  0  0  0  0  0  0  0
   -1.6351    1.3798   -2.7155 O   0  0  0  0  0  0  0  0  0  0  0  0
   -0.7658   -0.1994   -4.0045 O   0  0  0  0  0  0  0  0  0  0  0  0
    0.9529    1.3293    1.7736 H   0  0  0  0  0  0  0  0  0  0  0  0
   -0.6291    1.0387    2.1849 H   0  0  0  0  0  0  0  0  0  0  0  0
   -0.6310   -1.0452    1.0108 H   0  0  0  0  0  0  0  0  0  0  0  0
    1.0818   -0.7972    0.6284 H   0  0  0  0  0  0  0  0  0  0  0  0
    0.4916    1.2519   -0.6769 H   0  0  0  0  0  0  0  0  0  0  0  0
   -1.2123    1.0192   -0.2919 H   0  0  0  0  0  0  0  0  0  0  0  0
   -1.1366   -1.2108   -1.4349 H   0  0  0  0  0  0  0  0  0  0  0  0
    0.5161   -0.8696   -1.9483 H   0  0  0  0  0  0  0  0  0  0  0  0
    0.6010    0.0585    2.8317 H   0  0  0  0  0  0  0  0  0  0  0  0
   -2.2517   -2.5220    1.4638 O   0  0  0  0  0  0  0  0  0  0  0  0
   -3.2002   -2.4077    1.5723 H   0  0  0  0  0  0  0  0  0  0  0  0
   -2.0519   -3.4422    1.6601 H   0  0  0  0  0  0  0  0  0  0  0  0
    3.4445   -1.8064    3.0338 O   0  0  0  0  0  0  0  0  0  0  0  0
    4.2986   -1.3724    3.1113 H   0  0  0  0  0  0  0  0  0  0  0  0
    3.2735   -1.9150    2.0805 H   0  0  0  0  0  0  0  0  0  0  0  0
   -2.6443   -3.9499    6.3830 O   0  0  0  0  0  0  0  0  0  0  0  0
   -2.8832   -4.4776    7.1510 H   0  0  0  0  0  0  0  0  0  0  0  0
   -3.3927   -3.3780    6.1859 H   0  0  0  0  0  0  0  0  0  0  0  0
    1.2375   -0.6595    4.1172 O   0  0  0  0  0  0  0  0  0  0  0  0
    2.0551   -1.0977    3.7993 H   0  0  0  0  0  0  0  0  0  0  0  0
    0.7315   -1.3285    4.5857 H   0  0  0  0  0  0  0  0  0  0  0  0
    1.2707   -2.0085   -4.2431 O   0  0  0  0  0  0  0  0  0  0  0  0
    0.5324   -1.3663   -4.1869 H   0  0  0  0  0  0  0  0  0  0  0  0
    1.2856   -2.2981   -5.1600 H   0  0  0  0  0  0  0  0  0  0  0  0
    2.9810   -2.0137    0.2803 O   0  0  0  0  0  0  0  0  0  0  0  0
    2.6418   -2.8519   -0.0468 H   0  0  0  0  0  0  0  0  0  0  0  0
    3.6397   -1.7120   -0.3524 H   0  0  0  0  0  0  0  0  0  0  0  0
   -2.0000    1.3332   -5.9107 O   0  0  0  0  0  0  0  0  0  0  0  0
   -2.3549    2.0350   -5.3537 H   0  0  0  0  0  0  0  0  0  0  0  0
   -1.5351    0.7350   -5.2835 H   0  0  0  0  0  0  0  0  0  0  0  0
  1  2  1  0  0  0  0
  2  3  1  0  0  0  0
  3  4  1  0  0  0  0
  4  5  1  0  0  0  0
  5  6  2  0  0  0  0
  5  7  4  0  0  0  0
  1  8  1  0  0  0  0
  1  9  1  0  0  0  0
  2 10  1  0  0  0  0
  2 11  1  0  0  0  0
  3 12  1  0  0  0  0
  3 13  1  0  0  0  0
  4 14  1  0  0  0  0
  4 15  1  0  0  0  0
  1 16  1  0  0  0  0
 17 18  1  0  0  0  0
 17 19  1  0  0  0  0
 20 21  1  0  0  0  0
 20 22  1  0  0  0  0
 23 24  1  0  0  0  0
 23 25  1  0  0  0  0
 26 27  1  0  0  0  0
 26 28  1  0  0  0  0
 29 30  1  0  0  0  0
 29 31  1  0  0  0  0
 32 33  1  0  0  0  0
 32 34  1  0  0  0  0
 35 36  1  0  0  0  0
 35 37  1  0  0  0  0
M  END
