          37
  Built with Packmol                                             
  N            0.002605        0.268339        2.349498
  C            0.005610       -0.534268        1.127824
  C           -0.013605        0.360442       -0.117570
  C           -0.006580       -0.484114       -1.399583
  C            0.005309        0.346063       -2.655593
  O            0.015980        1.566588       -2.611145
  O            0.010136       -0.270580       -3.851920
  H            0.843830        0.889238        2.373417
  H           -0.867625        0.846216        2.397033
  H           -0.885896       -1.198618        1.124039
  H            0.917756       -1.170846        1.111005
  H            0.882890        1.016132       -0.103939
  H           -0.924881        0.997831       -0.099780
  H           -0.910028       -1.129127       -1.413513
  H            0.894287       -1.134110       -1.406828
  H            0.030211       -0.369186        3.177055
  O           -1.765134       -1.567748        5.517739
  H           -1.484595       -2.067436        6.325341
  H           -2.465652       -0.946940        5.840981
  O            2.557268       -2.714738        4.107360
  H            2.143274       -3.399776        3.524313
  H            2.612691       -3.146584        4.996770
  O            2.766134        1.959205        5.690786
  H            1.862628        2.117995        6.063712
  H            2.600425        1.541134        4.808533
  O            0.789010       -2.856829        6.204913
  H            0.701343       -1.907588        6.472993
  H            0.295159       -2.919501        5.348878
  O            2.436679       -0.695167        5.135110
  H            2.447377       -0.610482        6.121682
  H            3.382644       -0.579828        4.865926
  O           -0.360526        0.000018        6.159473
  H           -0.851027        0.003641        7.019709
  H            0.019769        0.911455        6.086878
  O           -2.134349        1.735982        5.324740
  H           -1.874965        2.689512        5.388860
  H           -2.892475        1.727391        4.687729
