 xtb: 6.7.1 (edcfbbe)
          06092518013D

 37 29  0     0  0            999 V2000
    1.2229    0.7154    3.0221 N   0  0  0  0  0  0  0  0  0  0  0  0
    0.9918   -0.2690    1.9544 C   0  0  0  0  0  0  0  0  0  0  0  0
    0.2737    0.3714    0.7711 C   0  0  0  0  0  0  0  0  0  0  0  0
   -0.0629   -0.6349   -0.3220 C   0  0  0  0  0  0  0  0  0  0  0  0
   -1.1124   -0.0808   -1.3258 C   0  0  0  0  0  0  0  0  0  0  0  0
   -1.9822    0.6993   -0.8819 O   0  0  0  0  0  0  0  0  0  0  0  0
   -1.0249   -0.4799   -2.5084 O   0  0  0  0  0  0  0  0  0  0  0  0
    1.8913    1.4440    2.7452 H   0  0  0  0  0  0  0  0  0  0  0  0
    0.3286    1.1628    3.2885 H   0  0  0  0  0  0  0  0  0  0  0  0
    0.3803   -1.0757    2.3611 H   0  0  0  0  0  0  0  0  0  0  0  0
    1.9448   -0.6799    1.6230 H   0  0  0  0  0  0  0  0  0  0  0  0
    0.8812    1.1667    0.3342 H   0  0  0  0  0  0  0  0  0  0  0  0
   -0.6744    0.8123    1.0854 H   0  0  0  0  0  0  0  0  0  0  0  0
   -0.5182   -1.5302    0.1101 H   0  0  0  0  0  0  0  0  0  0  0  0
    0.8110   -0.9421   -0.8981 H   0  0  0  0  0  0  0  0  0  0  0  0
    1.6384    0.2723    3.8893 H   0  0  0  0  0  0  0  0  0  0  0  0
   -2.6994   -3.4247    4.9107 O   0  0  0  0  0  0  0  0  0  0  0  0
   -2.6525   -4.2738    5.3605 H   0  0  0  0  0  0  0  0  0  0  0  0
   -3.4010   -3.4818    4.2557 H   0  0  0  0  0  0  0  0  0  0  0  0
    2.1726   -2.7859    4.9310 O   0  0  0  0  0  0  0  0  0  0  0  0
    2.5577   -3.2645    4.1937 H   0  0  0  0  0  0  0  0  0  0  0  0
    1.2317   -2.6221    4.6938 H   0  0  0  0  0  0  0  0  0  0  0  0
    3.4279    2.2271    3.8480 O   0  0  0  0  0  0  0  0  0  0  0  0
    3.5806    3.0383    4.3378 H   0  0  0  0  0  0  0  0  0  0  0  0
    3.4095    1.5087    4.4975 H   0  0  0  0  0  0  0  0  0  0  0  0
   -0.3427   -1.9565    4.3423 O   0  0  0  0  0  0  0  0  0  0  0  0
   -0.3735   -1.1928    4.9518 H   0  0  0  0  0  0  0  0  0  0  0  0
   -1.1407   -2.4720    4.5272 H   0  0  0  0  0  0  0  0  0  0  0  0
    2.3492   -0.0905    5.3421 O   0  0  0  0  0  0  0  0  0  0  0  0
    1.5356    0.0495    5.8544 H   0  0  0  0  0  0  0  0  0  0  0  0
    2.4657   -1.0590    5.2993 H   0  0  0  0  0  0  0  0  0  0  0  0
   -0.3551    0.3021    5.9877 O   0  0  0  0  0  0  0  0  0  0  0  0
   -0.9021    0.3807    6.7726 H   0  0  0  0  0  0  0  0  0  0  0  0
   -0.6777    0.9565    5.3447 H   0  0  0  0  0  0  0  0  0  0  0  0
   -1.2100    1.9454    3.8477 O   0  0  0  0  0  0  0  0  0  0  0  0
   -1.2077    2.9063    3.7936 H   0  0  0  0  0  0  0  0  0  0  0  0
   -1.9713    1.6308    3.3520 H   0  0  0  0  0  0  0  0  0  0  0  0
  1  2  1  0  0  0  0
  2  3  1  0  0  0  0
  3  4  1  0  0  0  0
  4  5  1  0  0  0  0
  5  6  4  0  0  0  0
  5  7  4  0  0  0  0
  1  8  1  0  0  0  0
  1  9  1  0  0  0  0
  2 10  1  0  0  0  0
  2 11  1  0  0  0  0
  3 12  1  0  0  0  0
  3 13  1  0  0  0  0
  4 14  1  0  0  0  0
  4 15  1  0  0  0  0
  1 16  1  0  0  0  0
 17 18  1  0  0  0  0
 17 19  1  0  0  0  0
 20 21  1  0  0  0  0
 20 22  1  0  0  0  0
 23 24  1  0  0  0  0
 23 25  1  0  0  0  0
 26 27  1  0  0  0  0
 26 28  1  0  0  0  0
 29 30  1  0  0  0  0
 29 31  1  0  0  0  0
 32 33  1  0  0  0  0
 32 34  1  0  0  0  0
 35 36  1  0  0  0  0
 35 37  1  0  0  0  0
M  END
