          34
  Built with Packmol                                             
  H            1.420531       -0.693439       -0.457594
  C            0.315625       -0.640915       -0.572756
  H            0.379447        0.341256       -2.375102
  H           -0.020204       -1.577267       -1.069783
  N           -0.042833        0.489322       -1.430827
  H           -0.104344       -1.525775        1.342275
  C           -0.356072       -0.581772        0.809877
  O           -0.155039        1.845644        1.277794
  C            0.099005        0.578296        1.654298
  H            0.334594        1.383914       -1.050468
  O            0.669992        0.373338        2.712012
  H           -1.081518        0.548347       -1.533033
  H           -1.459185       -0.540948        0.693308
  O            1.200767       -3.040903       -3.336335
  H            1.093184       -2.771709       -4.283210
  H            0.520181       -3.747250       -3.200354
  O           -1.697633       -2.125806        5.173004
  H           -0.809613       -2.208385        5.603366
  H           -2.003625       -3.060086        5.054250
  O           -2.925023        0.458656       -3.762208
  H           -1.997176        0.801859       -3.718359
  H           -2.963609       -0.242131       -3.063622
  O           -1.571506       -1.136937       -5.596974
  H           -0.766320       -1.034159       -6.164181
  H           -2.025590       -0.258479       -5.649254
  O           -1.469568       -3.813728       -1.256008
  H           -0.499249       -3.707702       -1.089123
  H           -1.810431       -2.887332       -1.334855
  O           -1.578784       -3.046059       -4.148688
  H           -1.693714       -2.187640       -3.668564
  H           -1.665056       -3.737407       -3.444978
  O           -0.841644       -3.339042        2.350600
  H           -1.457087       -4.110224        2.434968
  H           -1.126317       -2.715128        3.064956
