 xtb: 6.7.1 (edcfbbe)
          06092518003D

 34 26  0     0  0            999 V2000
    0.2021   -1.9202   -0.5450 H   0  0  0  0  0  0  0  0  0  0  0  0
   -0.6198   -1.2188   -0.6949 C   0  0  0  0  0  0  0  0  0  0  0  0
    0.1782   -0.6489   -2.5423 H   0  0  0  0  0  0  0  0  0  0  0  0
   -1.4876   -1.7701   -1.0546 H   0  0  0  0  0  0  0  0  0  0  0  0
   -0.2196   -0.2065   -1.6859 N   0  0  0  0  0  0  0  0  0  0  0  0
   -1.3110   -1.2717    1.3502 H   0  0  0  0  0  0  0  0  0  0  0  0
   -0.9446   -0.5428    0.6307 C   0  0  0  0  0  0  0  0  0  0  0  0
    1.0547    0.7753    0.4635 O   0  0  0  0  0  0  0  0  0  0  0  0
    0.2791    0.1783    1.2425 C   0  0  0  0  0  0  0  0  0  0  0  0
    0.4741    0.3950   -1.1983 H   0  0  0  0  0  0  0  0  0  0  0  0
    0.4112    0.1422    2.4889 O   0  0  0  0  0  0  0  0  0  0  0  0
   -1.0357    0.3764   -1.9743 H   0  0  0  0  0  0  0  0  0  0  0  0
   -1.7147    0.2189    0.4892 H   0  0  0  0  0  0  0  0  0  0  0  0
    0.5150   -1.5130   -3.9919 O   0  0  0  0  0  0  0  0  0  0  0  0
    1.4123   -1.7962   -4.1874 H   0  0  0  0  0  0  0  0  0  0  0  0
    0.0065   -2.3244   -3.7865 H   0  0  0  0  0  0  0  0  0  0  0  0
   -0.8166   -1.8198    3.8531 O   0  0  0  0  0  0  0  0  0  0  0  0
   -0.3156   -1.1047    3.3973 H   0  0  0  0  0  0  0  0  0  0  0  0
   -1.3092   -1.3849    4.5559 H   0  0  0  0  0  0  0  0  0  0  0  0
   -2.3192    1.1758   -2.8193 O   0  0  0  0  0  0  0  0  0  0  0  0
   -1.9037    1.0896   -3.7043 H   0  0  0  0  0  0  0  0  0  0  0  0
   -3.2184    0.8512   -2.9144 H   0  0  0  0  0  0  0  0  0  0  0  0
   -0.8973    0.6536   -5.0907 O   0  0  0  0  0  0  0  0  0  0  0  0
   -0.4351   -0.1642   -4.8309 H   0  0  0  0  0  0  0  0  0  0  0  0
   -0.2164    1.2749   -5.3624 H   0  0  0  0  0  0  0  0  0  0  0  0
   -1.1264   -4.5557   -0.5517 O   0  0  0  0  0  0  0  0  0  0  0  0
   -0.7817   -5.4401   -0.3967 H   0  0  0  0  0  0  0  0  0  0  0  0
   -1.3283   -4.1981    0.3270 H   0  0  0  0  0  0  0  0  0  0  0  0
   -0.8752   -3.7142   -3.2122 O   0  0  0  0  0  0  0  0  0  0  0  0
   -1.7022   -4.0209   -3.5935 H   0  0  0  0  0  0  0  0  0  0  0  0
   -0.9037   -3.9520   -2.2704 H   0  0  0  0  0  0  0  0  0  0  0  0
   -1.6320   -3.8844    2.1497 O   0  0  0  0  0  0  0  0  0  0  0  0
   -2.2645   -4.3729    2.6858 H   0  0  0  0  0  0  0  0  0  0  0  0
   -1.2426   -3.2162    2.7383 H   0  0  0  0  0  0  0  0  0  0  0  0
  1  2  1  0  0  0  0
  2  4  1  0  0  0  0
  2  5  1  0  0  0  0
  3  5  1  0  0  0  0
  2  7  1  0  0  0  0
  6  7  1  0  0  0  0
  7  9  1  0  0  0  0
  8  9  4  0  0  0  0
  5 10  1  0  0  0  0
  9 11  4  0  0  0  0
  5 12  1  0  0  0  0
  7 13  1  0  0  0  0
 14 15  1  0  0  0  0
 14 16  1  0  0  0  0
 17 18  1  0  0  0  0
 17 19  1  0  0  0  0
 20 21  1  0  0  0  0
 20 22  1  0  0  0  0
 23 24  1  0  0  0  0
 23 25  1  0  0  0  0
 26 27  1  0  0  0  0
 26 28  1  0  0  0  0
 29 30  1  0  0  0  0
 29 31  1  0  0  0  0
 32 33  1  0  0  0  0
 32 34  1  0  0  0  0
M  END
