 xtb: 6.7.1 (edcfbbe)
          06092517533D

 34 26  0     0  0            999 V2000
    0.7449   -0.3875   -0.4648 C   0  0  0  0  0  0  0  0  0  0  0  0
    1.0272   -0.1128    1.0365 C   0  0  0  0  0  0  0  0  0  0  0  0
    2.0554   -0.6463    1.5080 O   0  0  0  0  0  0  0  0  0  0  0  0
    0.2225    0.6097    1.6608 O   0  0  0  0  0  0  0  0  0  0  0  0
   -0.4864    0.3410   -0.9699 C   0  0  0  0  0  0  0  0  0  0  0  0
   -0.6676    0.1223   -2.4157 N   0  0  0  0  0  0  0  0  0  0  0  0
    1.6375   -0.0734   -1.0045 H   0  0  0  0  0  0  0  0  0  0  0  0
    0.6418   -1.4678   -0.5652 H   0  0  0  0  0  0  0  0  0  0  0  0
   -1.3566   -0.0085   -0.4146 H   0  0  0  0  0  0  0  0  0  0  0  0
   -0.3699    1.4057   -0.7632 H   0  0  0  0  0  0  0  0  0  0  0  0
   -0.7244   -0.8874   -2.6426 H   0  0  0  0  0  0  0  0  0  0  0  0
    0.1562    0.4971   -2.9453 H   0  0  0  0  0  0  0  0  0  0  0  0
   -1.5376    0.5653   -2.7544 H   0  0  0  0  0  0  0  0  0  0  0  0
    1.5714    0.7436   -3.8870 O   0  0  0  0  0  0  0  0  0  0  0  0
    1.6425   -0.1849   -4.1972 H   0  0  0  0  0  0  0  0  0  0  0  0
    2.3637    0.8773   -3.3488 H   0  0  0  0  0  0  0  0  0  0  0  0
   -0.8788   -2.2929   -3.7734 O   0  0  0  0  0  0  0  0  0  0  0  0
   -1.4624   -3.0557   -3.7602 H   0  0  0  0  0  0  0  0  0  0  0  0
   -1.2384   -1.6706   -4.4569 H   0  0  0  0  0  0  0  0  0  0  0  0
   -3.2738    0.9243   -3.2449 O   0  0  0  0  0  0  0  0  0  0  0  0
   -3.9851    0.4744   -2.7844 H   0  0  0  0  0  0  0  0  0  0  0  0
   -3.5225    1.8521   -3.3194 H   0  0  0  0  0  0  0  0  0  0  0  0
   -0.2527    1.7670   -5.6719 O   0  0  0  0  0  0  0  0  0  0  0  0
    0.1605    2.1572   -6.4502 H   0  0  0  0  0  0  0  0  0  0  0  0
    0.4686    1.5752   -5.0443 H   0  0  0  0  0  0  0  0  0  0  0  0
   -1.9127   -0.4071   -5.3555 O   0  0  0  0  0  0  0  0  0  0  0  0
   -2.5460    0.0201   -4.7566 H   0  0  0  0  0  0  0  0  0  0  0  0
   -1.2928    0.3074   -5.5955 H   0  0  0  0  0  0  0  0  0  0  0  0
    3.5239   -0.5375   -2.3037 O   0  0  0  0  0  0  0  0  0  0  0  0
    3.8309   -0.9130   -1.4759 H   0  0  0  0  0  0  0  0  0  0  0  0
    3.0920   -1.2545   -2.7975 H   0  0  0  0  0  0  0  0  0  0  0  0
    1.8085   -1.9853   -4.1769 O   0  0  0  0  0  0  0  0  0  0  0  0
    0.8758   -2.2122   -3.9866 H   0  0  0  0  0  0  0  0  0  0  0  0
    2.0923   -2.5613   -4.8877 H   0  0  0  0  0  0  0  0  0  0  0  0
  1  2  1  0  0  0  0
  2  3  4  0  0  0  0
  2  4  4  0  0  0  0
  1  5  1  0  0  0  0
  5  6  1  0  0  0  0
  1  7  1  0  0  0  0
  1  8  1  0  0  0  0
  5  9  1  0  0  0  0
  5 10  1  0  0  0  0
  6 11  1  0  0  0  0
  6 12  1  0  0  0  0
  6 13  1  0  0  0  0
 14 15  1  0  0  0  0
 14 16  1  0  0  0  0
 17 18  1  0  0  0  0
 17 19  1  0  0  0  0
 20 21  1  0  0  0  0
 20 22  1  0  0  0  0
 23 24  1  0  0  0  0
 23 25  1  0  0  0  0
 26 27  1  0  0  0  0
 26 28  1  0  0  0  0
 29 30  1  0  0  0  0
 29 31  1  0  0  0  0
 32 33  1  0  0  0  0
 32 34  1  0  0  0  0
M  END
