 xtb: 6.7.1 (edcfbbe)
          06092517593D

 34 26  0     0  0            999 V2000
    0.9689    0.6524   -0.0548 H   0  0  0  0  0  0  0  0  0  0  0  0
    0.1592   -0.0599   -0.2231 C   0  0  0  0  0  0  0  0  0  0  0  0
   -1.1316    1.1769   -1.2927 H   0  0  0  0  0  0  0  0  0  0  0  0
    0.3739   -0.6505   -1.1132 H   0  0  0  0  0  0  0  0  0  0  0  0
   -1.1090    0.6678   -0.4092 N   0  0  0  0  0  0  0  0  0  0  0  0
    0.9271   -1.6625    0.9928 H   0  0  0  0  0  0  0  0  0  0  0  0
    0.0679   -0.9893    0.9766 C   0  0  0  0  0  0  0  0  0  0  0  0
    0.5010    0.9027    2.4027 O   0  0  0  0  0  0  0  0  0  0  0  0
    0.0707   -0.2565    2.3250 C   0  0  0  0  0  0  0  0  0  0  0  0
   -1.2689    1.3485    0.3687 H   0  0  0  0  0  0  0  0  0  0  0  0
   -0.4214   -0.8989    3.3057 O   0  0  0  0  0  0  0  0  0  0  0  0
   -1.9422    0.0215   -0.3631 H   0  0  0  0  0  0  0  0  0  0  0  0
   -0.8289   -1.6071    0.9256 H   0  0  0  0  0  0  0  0  0  0  0  0
   -1.1261    0.4685    5.5797 O   0  0  0  0  0  0  0  0  0  0  0  0
   -0.7827   -0.0128    4.7970 H   0  0  0  0  0  0  0  0  0  0  0  0
   -0.3568    0.6721    6.1184 H   0  0  0  0  0  0  0  0  0  0  0  0
    0.3066   -3.5344    3.5078 O   0  0  0  0  0  0  0  0  0  0  0  0
    0.0312   -2.5959    3.4929 H   0  0  0  0  0  0  0  0  0  0  0  0
   -0.5033   -4.0512    3.5762 H   0  0  0  0  0  0  0  0  0  0  0  0
   -3.7464    2.2009   -0.4847 O   0  0  0  0  0  0  0  0  0  0  0  0
   -3.2202    2.5113    0.2661 H   0  0  0  0  0  0  0  0  0  0  0  0
   -4.4218    2.8634   -0.6463 H   0  0  0  0  0  0  0  0  0  0  0  0
   -3.4857   -0.5248    0.0918 O   0  0  0  0  0  0  0  0  0  0  0  0
   -3.4808   -0.4807    1.0605 H   0  0  0  0  0  0  0  0  0  0  0  0
   -3.8925    0.3109   -0.1991 H   0  0  0  0  0  0  0  0  0  0  0  0
   -1.8819    2.2681    1.7251 O   0  0  0  0  0  0  0  0  0  0  0  0
   -2.3925    1.5725    2.1862 H   0  0  0  0  0  0  0  0  0  0  0  0
   -1.0302    2.3021    2.1801 H   0  0  0  0  0  0  0  0  0  0  0  0
   -3.0482    0.0205    2.8709 O   0  0  0  0  0  0  0  0  0  0  0  0
   -3.5618    0.0839    3.6818 H   0  0  0  0  0  0  0  0  0  0  0  0
   -2.2050   -0.3913    3.1225 H   0  0  0  0  0  0  0  0  0  0  0  0
    2.1826   -3.5124    1.4353 O   0  0  0  0  0  0  0  0  0  0  0  0
    2.8582   -4.1910    1.5309 H   0  0  0  0  0  0  0  0  0  0  0  0
    1.5835   -3.6148    2.1967 H   0  0  0  0  0  0  0  0  0  0  0  0
  1  2  1  0  0  0  0
  2  4  1  0  0  0  0
  2  5  1  0  0  0  0
  3  5  1  0  0  0  0
  2  7  1  0  0  0  0
  6  7  1  0  0  0  0
  7  9  1  0  0  0  0
  8  9  2  0  0  0  0
  5 10  1  0  0  0  0
  9 11  4  0  0  0  0
  5 12  1  0  0  0  0
  7 13  1  0  0  0  0
 14 15  1  0  0  0  0
 14 16  1  0  0  0  0
 17 18  1  0  0  0  0
 17 19  1  0  0  0  0
 20 21  1  0  0  0  0
 20 22  1  0  0  0  0
 23 24  1  0  0  0  0
 23 25  1  0  0  0  0
 26 27  1  0  0  0  0
 26 28  1  0  0  0  0
 29 30  1  0  0  0  0
 29 31  1  0  0  0  0
 32 33  1  0  0  0  0
 32 34  1  0  0  0  0
M  END
