 xtb: 6.7.1 (edcfbbe)
          06102522083D

 49 37  0     0  0            999 V2000
   -0.3958   -0.9160    1.3836 N   0  0  0  0  0  0  0  0  0  0  0  0
   -1.3523   -0.3519    0.4195 C   0  0  0  0  0  0  0  0  0  0  0  0
   -0.6659    0.6571   -0.4942 C   0  0  0  0  0  0  0  0  0  0  0  0
   -1.6741    1.3270   -1.4311 C   0  0  0  0  0  0  0  0  0  0  0  0
   -2.4052    0.3134   -2.3034 C   0  0  0  0  0  0  0  0  0  0  0  0
   -3.6411    0.1599   -2.1422 O   0  0  0  0  0  0  0  0  0  0  0  0
   -1.7465   -0.3277   -3.1634 O   0  0  0  0  0  0  0  0  0  0  0  0
    0.3592   -1.4291    0.8778 H   0  0  0  0  0  0  0  0  0  0  0  0
    0.0365   -0.1557    1.9384 H   0  0  0  0  0  0  0  0  0  0  0  0
   -2.1651    0.1381    0.9576 H   0  0  0  0  0  0  0  0  0  0  0  0
   -1.7811   -1.1622   -0.1719 H   0  0  0  0  0  0  0  0  0  0  0  0
    0.1068    0.1668   -1.0863 H   0  0  0  0  0  0  0  0  0  0  0  0
   -0.1933    1.4319    0.1103 H   0  0  0  0  0  0  0  0  0  0  0  0
   -2.4181    1.8779   -0.8546 H   0  0  0  0  0  0  0  0  0  0  0  0
   -1.1535    2.0168   -2.0984 H   0  0  0  0  0  0  0  0  0  0  0  0
   -0.8907   -1.5817    2.0191 H   0  0  0  0  0  0  0  0  0  0  0  0
   -4.8280    1.7560   -4.1648 O   0  0  0  0  0  0  0  0  0  0  0  0
   -4.5870    1.1435   -3.4519 H   0  0  0  0  0  0  0  0  0  0  0  0
   -5.3192    2.4763   -3.7556 H   0  0  0  0  0  0  0  0  0  0  0  0
   -4.0368   -2.3654    1.1027 O   0  0  0  0  0  0  0  0  0  0  0  0
   -4.2453   -1.4151    1.0313 H   0  0  0  0  0  0  0  0  0  0  0  0
   -4.0666   -2.6873    0.1871 H   0  0  0  0  0  0  0  0  0  0  0  0
    0.6700    0.6756   -4.2076 O   0  0  0  0  0  0  0  0  0  0  0  0
    0.5049    1.0586   -5.0734 H   0  0  0  0  0  0  0  0  0  0  0  0
   -0.2051    0.4134   -3.8717 H   0  0  0  0  0  0  0  0  0  0  0  0
    0.6028   -1.8846   -2.6910 O   0  0  0  0  0  0  0  0  0  0  0  0
    1.2005   -1.4124   -3.2824 H   0  0  0  0  0  0  0  0  0  0  0  0
   -0.2271   -1.3835   -2.7365 H   0  0  0  0  0  0  0  0  0  0  0  0
   -4.5890    0.3039    0.4687 O   0  0  0  0  0  0  0  0  0  0  0  0
   -5.5245    0.5253    0.4496 H   0  0  0  0  0  0  0  0  0  0  0  0
   -4.2944    0.2718   -0.4603 H   0  0  0  0  0  0  0  0  0  0  0  0
    0.7686    1.1918    2.8339 O   0  0  0  0  0  0  0  0  0  0  0  0
    0.4094    1.4337    3.6926 H   0  0  0  0  0  0  0  0  0  0  0  0
    1.7274    1.1976    2.9064 H   0  0  0  0  0  0  0  0  0  0  0  0
    1.4809   -2.2902   -0.1001 O   0  0  0  0  0  0  0  0  0  0  0  0
    1.2181   -2.1795   -1.0330 H   0  0  0  0  0  0  0  0  0  0  0  0
    1.5668   -3.2357    0.0497 H   0  0  0  0  0  0  0  0  0  0  0  0
   -2.1193   -3.0781   -3.6202 O   0  0  0  0  0  0  0  0  0  0  0  0
   -1.2172   -3.3977   -3.4958 H   0  0  0  0  0  0  0  0  0  0  0  0
   -2.0498   -2.1073   -3.6325 H   0  0  0  0  0  0  0  0  0  0  0  0
   -1.9643   -2.6094    2.8564 O   0  0  0  0  0  0  0  0  0  0  0  0
   -2.3390   -2.3760    3.7099 H   0  0  0  0  0  0  0  0  0  0  0  0
   -2.7157   -2.6529    2.2306 H   0  0  0  0  0  0  0  0  0  0  0  0
   -4.0821   -2.6222   -1.6817 O   0  0  0  0  0  0  0  0  0  0  0  0
   -3.5088   -3.0502   -2.3403 H   0  0  0  0  0  0  0  0  0  0  0  0
   -4.0879   -1.6834   -1.9289 H   0  0  0  0  0  0  0  0  0  0  0  0
   -3.2485    1.5815   -5.3415 H   0  0  0  0  0  0  0  0  0  0  0  0
   -2.3496    1.2689   -5.5247 O   0  0  0  0  0  0  0  0  0  0  0  0
   -2.2075    0.5478   -4.8962 H   0  0  0  0  0  0  0  0  0  0  0  0
  1  2  1  0  0  0  0
  2  3  1  0  0  0  0
  3  4  1  0  0  0  0
  4  5  1  0  0  0  0
  5  6  4  0  0  0  0
  5  7  4  0  0  0  0
  1  8  1  0  0  0  0
  1  9  1  0  0  0  0
  2 10  1  0  0  0  0
  2 11  1  0  0  0  0
  3 12  1  0  0  0  0
  3 13  1  0  0  0  0
  4 14  1  0  0  0  0
  4 15  1  0  0  0  0
  1 16  1  0  0  0  0
 17 18  1  0  0  0  0
 17 19  1  0  0  0  0
 20 21  1  0  0  0  0
 20 22  1  0  0  0  0
 23 24  1  0  0  0  0
 23 25  1  0  0  0  0
 26 27  1  0  0  0  0
 26 28  1  0  0  0  0
 29 30  1  0  0  0  0
 29 31  1  0  0  0  0
 32 33  1  0  0  0  0
 32 34  1  0  0  0  0
 35 36  1  0  0  0  0
 35 37  1  0  0  0  0
 38 39  1  0  0  0  0
 38 40  1  0  0  0  0
 41 42  1  0  0  0  0
 41 43  1  0  0  0  0
 44 45  1  0  0  0  0
 44 46  1  0  0  0  0
 47 48  1  0  0  0  0
 48 49  1  0  0  0  0
M  END
