 xtb: 6.7.1 (edcfbbe)
          06092518043D

 37 29  0     0  0            999 V2000
   -0.3786   -1.0660    2.2288 N   0  0  0  0  0  0  0  0  0  0  0  0
   -0.6501   -0.9947    0.7803 C   0  0  0  0  0  0  0  0  0  0  0  0
    0.2465    0.0287    0.0925 C   0  0  0  0  0  0  0  0  0  0  0  0
    0.1591   -0.1061   -1.4239 C   0  0  0  0  0  0  0  0  0  0  0  0
    0.9034   -1.3397   -1.9957 C   0  0  0  0  0  0  0  0  0  0  0  0
    1.4165   -2.1564   -1.1957 O   0  0  0  0  0  0  0  0  0  0  0  0
    0.9490   -1.4349   -3.2404 O   0  0  0  0  0  0  0  0  0  0  0  0
    0.6170   -0.9115    2.3927 H   0  0  0  0  0  0  0  0  0  0  0  0
   -0.9277   -0.3822    2.7894 H   0  0  0  0  0  0  0  0  0  0  0  0
   -1.6965   -0.7491    0.6042 H   0  0  0  0  0  0  0  0  0  0  0  0
   -0.4465   -1.9662    0.3319 H   0  0  0  0  0  0  0  0  0  0  0  0
    1.2878   -0.1478    0.3747 H   0  0  0  0  0  0  0  0  0  0  0  0
   -0.0346    1.0431    0.3778 H   0  0  0  0  0  0  0  0  0  0  0  0
   -0.8802   -0.1828   -1.7495 H   0  0  0  0  0  0  0  0  0  0  0  0
    0.5942    0.7610   -1.9265 H   0  0  0  0  0  0  0  0  0  0  0  0
   -0.5983   -2.0404    2.5790 H   0  0  0  0  0  0  0  0  0  0  0  0
    0.9902   -4.0956    0.7567 O   0  0  0  0  0  0  0  0  0  0  0  0
    1.0895   -4.9258    0.2844 H   0  0  0  0  0  0  0  0  0  0  0  0
    1.2161   -3.4014    0.1137 H   0  0  0  0  0  0  0  0  0  0  0  0
   -1.2772   -2.2846    5.3224 O   0  0  0  0  0  0  0  0  0  0  0  0
   -1.0440   -2.7037    6.1536 H   0  0  0  0  0  0  0  0  0  0  0  0
   -0.9389   -2.8585    4.6119 H   0  0  0  0  0  0  0  0  0  0  0  0
   -0.6768   -3.6355    2.9635 O   0  0  0  0  0  0  0  0  0  0  0  0
   -1.5773   -3.8450    2.6289 H   0  0  0  0  0  0  0  0  0  0  0  0
   -0.0507   -3.9423    2.2879 H   0  0  0  0  0  0  0  0  0  0  0  0
   -3.2572   -3.8814    2.2355 O   0  0  0  0  0  0  0  0  0  0  0  0
   -3.7950   -4.6507    2.4360 H   0  0  0  0  0  0  0  0  0  0  0  0
   -3.5626   -3.1665    2.8399 H   0  0  0  0  0  0  0  0  0  0  0  0
   -3.7654   -1.9625    4.0830 O   0  0  0  0  0  0  0  0  0  0  0  0
   -3.6555   -1.0488    3.7963 H   0  0  0  0  0  0  0  0  0  0  0  0
   -2.9840   -2.1413    4.6405 H   0  0  0  0  0  0  0  0  0  0  0  0
   -1.7220    0.2599    4.2121 O   0  0  0  0  0  0  0  0  0  0  0  0
   -1.5156   -0.5070    4.7756 H   0  0  0  0  0  0  0  0  0  0  0  0
   -1.4623    1.0470    4.6954 H   0  0  0  0  0  0  0  0  0  0  0  0
   -3.5877   -0.0965   -0.7254 O   0  0  0  0  0  0  0  0  0  0  0  0
   -4.1127    0.7062   -0.6439 H   0  0  0  0  0  0  0  0  0  0  0  0
   -4.1639   -0.7728   -1.0929 H   0  0  0  0  0  0  0  0  0  0  0  0
  1  2  1  0  0  0  0
  2  3  1  0  0  0  0
  3  4  1  0  0  0  0
  4  5  1  0  0  0  0
  5  6  4  0  0  0  0
  5  7  4  0  0  0  0
  1  8  1  0  0  0  0
  1  9  1  0  0  0  0
  2 10  1  0  0  0  0
  2 11  1  0  0  0  0
  3 12  1  0  0  0  0
  3 13  1  0  0  0  0
  4 14  1  0  0  0  0
  4 15  1  0  0  0  0
  1 16  1  0  0  0  0
 17 18  1  0  0  0  0
 17 19  1  0  0  0  0
 20 21  1  0  0  0  0
 20 22  1  0  0  0  0
 23 24  1  0  0  0  0
 23 25  1  0  0  0  0
 26 27  1  0  0  0  0
 26 28  1  0  0  0  0
 29 30  1  0  0  0  0
 29 31  1  0  0  0  0
 32 33  1  0  0  0  0
 32 34  1  0  0  0  0
 35 36  1  0  0  0  0
 35 37  1  0  0  0  0
M  END
