 xtb: 6.7.1 (edcfbbe)
          06092518073D

 37 29  0     0  0            999 V2000
   -0.3288   -1.3926    1.4719 N   0  0  0  0  0  0  0  0  0  0  0  0
    0.4016   -0.1722    1.0640 C   0  0  0  0  0  0  0  0  0  0  0  0
   -0.2459    0.4859   -0.1523 C   0  0  0  0  0  0  0  0  0  0  0  0
    0.0137   -0.2770   -1.4531 C   0  0  0  0  0  0  0  0  0  0  0  0
   -0.9052   -1.4775   -1.7176 C   0  0  0  0  0  0  0  0  0  0  0  0
   -0.7605   -2.0643   -2.8192 O   0  0  0  0  0  0  0  0  0  0  0  0
   -1.7162   -1.8405   -0.8380 O   0  0  0  0  0  0  0  0  0  0  0  0
   -0.9318   -1.2477    2.2798 H   0  0  0  0  0  0  0  0  0  0  0  0
   -0.9424   -1.6899    0.6796 H   0  0  0  0  0  0  0  0  0  0  0  0
    0.4266    0.5343    1.8924 H   0  0  0  0  0  0  0  0  0  0  0  0
    1.4265   -0.4472    0.8121 H   0  0  0  0  0  0  0  0  0  0  0  0
    0.1629    1.4905   -0.2615 H   0  0  0  0  0  0  0  0  0  0  0  0
   -1.3231    0.5762    0.0014 H   0  0  0  0  0  0  0  0  0  0  0  0
    1.0368   -0.6591   -1.4764 H   0  0  0  0  0  0  0  0  0  0  0  0
   -0.1002    0.3796   -2.3186 H   0  0  0  0  0  0  0  0  0  0  0  0
    0.3415   -2.1826    1.6674 H   0  0  0  0  0  0  0  0  0  0  0  0
    0.8457   -4.2141   -2.1913 O   0  0  0  0  0  0  0  0  0  0  0  0
    0.8532   -4.7701   -2.9787 H   0  0  0  0  0  0  0  0  0  0  0  0
    0.2501   -3.4765   -2.4211 H   0  0  0  0  0  0  0  0  0  0  0  0
    0.0927   -5.2475    0.2808 O   0  0  0  0  0  0  0  0  0  0  0  0
    0.2051   -6.2021    0.2682 H   0  0  0  0  0  0  0  0  0  0  0  0
    0.3071   -4.9244   -0.6156 H   0  0  0  0  0  0  0  0  0  0  0  0
    2.6345   -2.5656   -0.7649 O   0  0  0  0  0  0  0  0  0  0  0  0
    2.1188   -3.1664   -1.3293 H   0  0  0  0  0  0  0  0  0  0  0  0
    3.5610   -2.7131   -0.9753 H   0  0  0  0  0  0  0  0  0  0  0  0
    1.5402   -3.3354    1.6190 O   0  0  0  0  0  0  0  0  0  0  0  0
    2.0338   -3.0247    0.8322 H   0  0  0  0  0  0  0  0  0  0  0  0
    1.0359   -4.1080    1.2990 H   0  0  0  0  0  0  0  0  0  0  0  0
   -2.2060   -3.8052    1.1482 O   0  0  0  0  0  0  0  0  0  0  0  0
   -2.3384   -3.2577    0.3621 H   0  0  0  0  0  0  0  0  0  0  0  0
   -1.4712   -4.3989    0.9210 H   0  0  0  0  0  0  0  0  0  0  0  0
   -1.1965   -4.3453   -4.4308 O   0  0  0  0  0  0  0  0  0  0  0  0
   -2.1090   -4.6378   -4.3465 H   0  0  0  0  0  0  0  0  0  0  0  0
   -1.1539   -3.4721   -4.0081 H   0  0  0  0  0  0  0  0  0  0  0  0
    3.1146   -3.7880    3.9066 O   0  0  0  0  0  0  0  0  0  0  0  0
    2.4529   -3.8212    4.6037 H   0  0  0  0  0  0  0  0  0  0  0  0
    2.6200   -3.6261    3.0815 H   0  0  0  0  0  0  0  0  0  0  0  0
  1  2  1  0  0  0  0
  2  3  1  0  0  0  0
  3  4  1  0  0  0  0
  4  5  1  0  0  0  0
  5  6  4  0  0  0  0
  5  7  4  0  0  0  0
  1  8  1  0  0  0  0
  1  9  1  0  0  0  0
  2 10  1  0  0  0  0
  2 11  1  0  0  0  0
  3 12  1  0  0  0  0
  3 13  1  0  0  0  0
  4 14  1  0  0  0  0
  4 15  1  0  0  0  0
  1 16  1  0  0  0  0
 17 18  1  0  0  0  0
 17 19  1  0  0  0  0
 20 21  1  0  0  0  0
 20 22  1  0  0  0  0
 23 24  1  0  0  0  0
 23 25  1  0  0  0  0
 26 27  1  0  0  0  0
 26 28  1  0  0  0  0
 29 30  1  0  0  0  0
 29 31  1  0  0  0  0
 32 33  1  0  0  0  0
 32 34  1  0  0  0  0
 35 36  1  0  0  0  0
 35 37  1  0  0  0  0
M  END
