          34
  Built with Packmol                                             
  C            0.000717       -0.522558        0.678044
  C            0.000155        0.093927        2.050368
  O           -0.000195       -0.630131        3.032262
  O           -0.000797        1.431559        2.216433
  C            0.000989        0.525311       -0.443260
  N           -0.000301       -0.116591       -1.756652
  H            0.902593       -1.162928        0.578888
  H           -0.902640       -1.160238        0.579017
  H           -0.902002        1.167413       -0.351037
  H            0.903666        1.168949       -0.351720
  H           -0.857069       -0.705532       -1.867523
  H            0.853228       -0.710069       -1.867795
  H            0.001656        0.620887       -2.497026
  O           -1.005909       -2.287323       -5.699804
  H           -1.554664       -1.515506       -5.410361
  H           -1.003668       -2.233239       -6.688582
  O           -2.127919       -2.752254       -1.041547
  H           -2.402502       -3.697361       -0.932060
  H           -2.638376       -2.263629       -0.347795
  O            0.180170       -2.646437       -3.871725
  H            0.276617       -3.623919       -3.997578
  H            0.944503       -2.393938       -3.294965
  O           -1.975596       -3.091497       -3.781525
  H           -2.135621       -2.191893       -3.399798
  H           -1.688205       -3.641061       -3.009515
  O            1.069977       -3.554704       -1.361804
  H            0.452817       -2.941066       -0.889392
  H            1.270876       -4.262920       -0.699474
  O            3.272342       -2.651626       -2.053417
  H            2.771529       -1.811292       -2.207155
  H            2.841879       -3.310485       -2.654433
  O            1.872054       -1.952972       -5.858335
  H            1.161163       -2.642273       -5.847906
  H            1.646263       -1.352275       -5.104151
