 xtb: 6.7.1 (edcfbbe)
          06092517543D

 34 26  0     0  0            999 V2000
    0.6399   -0.8271    0.6362 C   0  0  0  0  0  0  0  0  0  0  0  0
    1.2862   -0.3059    1.9489 C   0  0  0  0  0  0  0  0  0  0  0  0
    2.0061   -1.1183    2.5675 O   0  0  0  0  0  0  0  0  0  0  0  0
    1.0680    0.8777    2.2914 O   0  0  0  0  0  0  0  0  0  0  0  0
   -0.3339    0.1598    0.0193 C   0  0  0  0  0  0  0  0  0  0  0  0
   -0.7333   -0.2585   -1.3421 N   0  0  0  0  0  0  0  0  0  0  0  0
    1.4833   -1.0244   -0.0298 H   0  0  0  0  0  0  0  0  0  0  0  0
    0.1666   -1.7792    0.8750 H   0  0  0  0  0  0  0  0  0  0  0  0
   -1.2210    0.2447    0.6457 H   0  0  0  0  0  0  0  0  0  0  0  0
    0.1421    1.1397   -0.0179 H   0  0  0  0  0  0  0  0  0  0  0  0
   -1.3191   -1.1164   -1.3096 H   0  0  0  0  0  0  0  0  0  0  0  0
    0.1005   -0.4527   -1.8995 H   0  0  0  0  0  0  0  0  0  0  0  0
   -1.2736    0.5041   -1.8146 H   0  0  0  0  0  0  0  0  0  0  0  0
   -1.1184   -3.7073    0.6023 O   0  0  0  0  0  0  0  0  0  0  0  0
   -0.8390   -4.5841    0.3243 H   0  0  0  0  0  0  0  0  0  0  0  0
   -1.6350   -3.3317   -0.1349 H   0  0  0  0  0  0  0  0  0  0  0  0
   -3.1017   -1.0082    3.9415 O   0  0  0  0  0  0  0  0  0  0  0  0
   -2.7036   -1.8678    3.6990 H   0  0  0  0  0  0  0  0  0  0  0  0
   -2.6582   -0.7215    4.7445 H   0  0  0  0  0  0  0  0  0  0  0  0
   -3.1119    0.8100    1.8677 O   0  0  0  0  0  0  0  0  0  0  0  0
   -3.0879    0.1637    2.5990 H   0  0  0  0  0  0  0  0  0  0  0  0
   -4.0265    1.1052    1.8138 H   0  0  0  0  0  0  0  0  0  0  0  0
   -2.4232   -2.5112   -1.5716 O   0  0  0  0  0  0  0  0  0  0  0  0
   -2.3696   -2.9327   -2.4364 H   0  0  0  0  0  0  0  0  0  0  0  0
   -3.3491   -2.3011   -1.4117 H   0  0  0  0  0  0  0  0  0  0  0  0
   -1.9840    1.7877   -2.6936 O   0  0  0  0  0  0  0  0  0  0  0  0
   -2.9028    2.0158   -2.5252 H   0  0  0  0  0  0  0  0  0  0  0  0
   -1.4789    2.6048   -2.6750 H   0  0  0  0  0  0  0  0  0  0  0  0
   -1.7749   -3.3415    3.2695 O   0  0  0  0  0  0  0  0  0  0  0  0
   -0.9187   -3.4528    3.6916 H   0  0  0  0  0  0  0  0  0  0  0  0
   -1.6123   -3.4532    2.3126 H   0  0  0  0  0  0  0  0  0  0  0  0
   -1.0045    2.7624    1.9283 O   0  0  0  0  0  0  0  0  0  0  0  0
   -0.2365    2.2050    2.1377 H   0  0  0  0  0  0  0  0  0  0  0  0
   -1.7658    2.1563    1.9609 H   0  0  0  0  0  0  0  0  0  0  0  0
  1  2  1  0  0  0  0
  2  3  4  0  0  0  0
  2  4  4  0  0  0  0
  1  5  1  0  0  0  0
  5  6  1  0  0  0  0
  1  7  1  0  0  0  0
  1  8  1  0  0  0  0
  5  9  1  0  0  0  0
  5 10  1  0  0  0  0
  6 11  1  0  0  0  0
  6 12  1  0  0  0  0
  6 13  1  0  0  0  0
 14 15  1  0  0  0  0
 14 16  1  0  0  0  0
 17 18  1  0  0  0  0
 17 19  1  0  0  0  0
 20 21  1  0  0  0  0
 20 22  1  0  0  0  0
 23 24  1  0  0  0  0
 23 25  1  0  0  0  0
 26 27  1  0  0  0  0
 26 28  1  0  0  0  0
 29 30  1  0  0  0  0
 29 31  1  0  0  0  0
 32 33  1  0  0  0  0
 32 34  1  0  0  0  0
M  END
