          37
  Built with Packmol                                             
  N            0.058148       -0.927583        1.469607
  C            0.211959        0.510020        1.257389
  C           -0.420296        1.026601       -0.053995
  C            0.232909        0.510995       -1.351786
  C           -0.125253       -0.896436       -1.755618
  O            0.432585       -1.420882       -2.861979
  O           -0.947959       -1.551103       -1.137172
  H            0.428548       -1.166868        2.416841
  H           -0.951876       -1.193831        1.431538
  H           -0.278739        1.044785        2.100148
  H            1.291996        0.772629        1.278823
  H           -0.263312        2.127518       -0.038280
  H           -1.516957        0.851348       -0.073370
  H            1.334639        0.617682       -1.263614
  H           -0.104560        1.158543       -2.189480
  H            0.618166       -1.463418        0.770947
  O           -2.213492        3.977885       -3.550734
  H           -1.326871        3.740548       -3.922466
  H           -2.314354        3.393790       -2.757466
  O           -2.861434        1.263694       -5.746317
  H           -2.313349        2.021395       -6.072049
  H           -3.386568        1.641594       -4.996623
  O           -3.285746       -0.448489       -4.307036
  H           -2.555214       -0.880568       -4.817176
  H           -3.042533       -0.589697       -3.357551
  O           -2.142178       -2.807514       -2.798602
  H           -2.893749       -2.834094       -2.154361
  H           -2.578102       -2.768200       -3.686880
  O           -1.366327        1.550091       -4.147906
  H           -0.762762        0.772223       -4.253938
  H           -1.941705        1.314424       -3.377183
  O           -0.468158       -1.497616       -5.174382
  H            0.352866       -0.967565       -5.014457
  H           -0.775939       -1.213639       -6.071734
  O           -0.301949       -4.624872       -3.432441
  H           -0.301987       -4.004761       -2.660384
  H           -1.018502       -4.283718       -4.024707
