 xtb: 6.7.1 (edcfbbe)
          06092517543D

 34 26  0     0  0            999 V2000
    0.8823   -0.8342    0.8116 C   0  0  0  0  0  0  0  0  0  0  0  0
    0.9060    0.1884    1.9662 C   0  0  0  0  0  0  0  0  0  0  0  0
   -0.1501    0.3088    2.6506 O   0  0  0  0  0  0  0  0  0  0  0  0
    1.9457    0.8356    2.1667 O   0  0  0  0  0  0  0  0  0  0  0  0
   -0.0120   -0.3542   -0.3251 C   0  0  0  0  0  0  0  0  0  0  0  0
   -0.0688   -1.3654   -1.3975 N   0  0  0  0  0  0  0  0  0  0  0  0
    1.9083   -0.9613    0.4665 H   0  0  0  0  0  0  0  0  0  0  0  0
    0.5066   -1.7777    1.2094 H   0  0  0  0  0  0  0  0  0  0  0  0
   -1.0183   -0.1734    0.0538 H   0  0  0  0  0  0  0  0  0  0  0  0
    0.3818    0.5790   -0.7317 H   0  0  0  0  0  0  0  0  0  0  0  0
   -0.5417   -2.2368   -1.0618 H   0  0  0  0  0  0  0  0  0  0  0  0
    0.8916   -1.6147   -1.6951 H   0  0  0  0  0  0  0  0  0  0  0  0
   -0.5909   -1.0004   -2.2164 H   0  0  0  0  0  0  0  0  0  0  0  0
   -0.4806   -3.8888    2.0423 O   0  0  0  0  0  0  0  0  0  0  0  0
   -0.0419   -4.5235    2.6140 H   0  0  0  0  0  0  0  0  0  0  0  0
   -0.8713   -3.2077    2.6262 H   0  0  0  0  0  0  0  0  0  0  0  0
   -1.5100   -1.8614    3.5544 O   0  0  0  0  0  0  0  0  0  0  0  0
   -0.9686   -1.0841    3.3031 H   0  0  0  0  0  0  0  0  0  0  0  0
   -2.4220   -1.5843    3.4117 H   0  0  0  0  0  0  0  0  0  0  0  0
    0.9980    2.5557   -1.7798 O   0  0  0  0  0  0  0  0  0  0  0  0
    1.9278    2.7999   -1.7900 H   0  0  0  0  0  0  0  0  0  0  0  0
    0.4961    3.3536   -1.5911 H   0  0  0  0  0  0  0  0  0  0  0  0
   -1.3549   -3.6520   -0.5626 O   0  0  0  0  0  0  0  0  0  0  0  0
   -2.3130   -3.6243   -0.4841 H   0  0  0  0  0  0  0  0  0  0  0  0
   -1.0109   -3.8258    0.3304 H   0  0  0  0  0  0  0  0  0  0  0  0
    2.5229   -2.1250   -2.2026 O   0  0  0  0  0  0  0  0  0  0  0  0
    2.6904   -3.0663   -2.3095 H   0  0  0  0  0  0  0  0  0  0  0  0
    2.9732   -1.6619   -2.9147 H   0  0  0  0  0  0  0  0  0  0  0  0
   -1.5881   -0.5083   -3.5883 O   0  0  0  0  0  0  0  0  0  0  0  0
   -2.3427    0.0635   -3.4241 H   0  0  0  0  0  0  0  0  0  0  0  0
   -1.8653   -1.1882   -4.2103 H   0  0  0  0  0  0  0  0  0  0  0  0
   -2.6659    0.6413    1.6158 O   0  0  0  0  0  0  0  0  0  0  0  0
   -2.9760    1.5230    1.8382 H   0  0  0  0  0  0  0  0  0  0  0  0
   -1.7745    0.5646    2.0083 H   0  0  0  0  0  0  0  0  0  0  0  0
  1  2  1  0  0  0  0
  2  3  4  0  0  0  0
  2  4  2  0  0  0  0
  1  5  1  0  0  0  0
  5  6  1  0  0  0  0
  1  7  1  0  0  0  0
  1  8  1  0  0  0  0
  5  9  1  0  0  0  0
  5 10  1  0  0  0  0
  6 11  1  0  0  0  0
  6 12  1  0  0  0  0
  6 13  1  0  0  0  0
 14 15  1  0  0  0  0
 14 16  1  0  0  0  0
 17 18  1  0  0  0  0
 17 19  1  0  0  0  0
 20 21  1  0  0  0  0
 20 22  1  0  0  0  0
 23 24  1  0  0  0  0
 23 25  1  0  0  0  0
 26 27  1  0  0  0  0
 26 28  1  0  0  0  0
 29 30  1  0  0  0  0
 29 31  1  0  0  0  0
 32 33  1  0  0  0  0
 32 34  1  0  0  0  0
M  END
