 xtb: 6.7.1 (edcfbbe)
          06102522083D

 49 37  0     0  0            999 V2000
   -1.2765    0.1342    0.4164 N   0  0  0  0  0  0  0  0  0  0  0  0
   -2.4390    0.9694    0.0643 C   0  0  0  0  0  0  0  0  0  0  0  0
   -3.2079    0.3678   -1.1066 C   0  0  0  0  0  0  0  0  0  0  0  0
   -2.4514    0.4872   -2.4284 C   0  0  0  0  0  0  0  0  0  0  0  0
   -2.4762   -0.7507   -3.3205 C   0  0  0  0  0  0  0  0  0  0  0  0
   -1.9265   -0.6395   -4.4504 O   0  0  0  0  0  0  0  0  0  0  0  0
   -2.9842   -1.8213   -2.9132 O   0  0  0  0  0  0  0  0  0  0  0  0
   -0.8342    0.4976    1.2786 H   0  0  0  0  0  0  0  0  0  0  0  0
   -1.5872   -0.8552    0.5912 H   0  0  0  0  0  0  0  0  0  0  0  0
   -3.0964    1.0252    0.9315 H   0  0  0  0  0  0  0  0  0  0  0  0
   -2.1004    1.9752   -0.1858 H   0  0  0  0  0  0  0  0  0  0  0  0
   -4.1772    0.8577   -1.1944 H   0  0  0  0  0  0  0  0  0  0  0  0
   -3.4003   -0.6829   -0.8964 H   0  0  0  0  0  0  0  0  0  0  0  0
   -1.3940    0.6871   -2.2506 H   0  0  0  0  0  0  0  0  0  0  0  0
   -2.8270    1.3121   -3.0369 H   0  0  0  0  0  0  0  0  0  0  0  0
   -0.5713    0.1283   -0.3428 H   0  0  0  0  0  0  0  0  0  0  0  0
   -4.1479   -4.2572   -3.6235 O   0  0  0  0  0  0  0  0  0  0  0  0
   -3.7503   -3.3732   -3.5450 H   0  0  0  0  0  0  0  0  0  0  0  0
   -4.2592   -4.4180   -4.5639 H   0  0  0  0  0  0  0  0  0  0  0  0
   -2.1210   -2.4487    0.8035 O   0  0  0  0  0  0  0  0  0  0  0  0
   -1.6431   -2.9501    0.1210 H   0  0  0  0  0  0  0  0  0  0  0  0
   -3.0560   -2.5681    0.5711 H   0  0  0  0  0  0  0  0  0  0  0  0
   -2.5846    1.8522   -5.5914 O   0  0  0  0  0  0  0  0  0  0  0  0
   -2.3944    0.9310   -5.3443 H   0  0  0  0  0  0  0  0  0  0  0  0
   -1.7261    2.2890   -5.6312 H   0  0  0  0  0  0  0  0  0  0  0  0
   -0.2992    1.2546    2.7861 O   0  0  0  0  0  0  0  0  0  0  0  0
    0.4183    1.8865    2.8823 H   0  0  0  0  0  0  0  0  0  0  0  0
   -0.3646    0.7549    3.6044 H   0  0  0  0  0  0  0  0  0  0  0  0
   -1.2931   -3.5923   -1.5925 O   0  0  0  0  0  0  0  0  0  0  0  0
   -1.4722   -4.4829   -1.9072 H   0  0  0  0  0  0  0  0  0  0  0  0
   -1.8912   -3.0066   -2.0912 H   0  0  0  0  0  0  0  0  0  0  0  0
    1.0171   -2.3004   -2.3621 O   0  0  0  0  0  0  0  0  0  0  0  0
    0.3035   -2.8326   -1.9637 H   0  0  0  0  0  0  0  0  0  0  0  0
    0.8632   -2.3652   -3.3270 H   0  0  0  0  0  0  0  0  0  0  0  0
    0.7655    0.2274   -1.6001 O   0  0  0  0  0  0  0  0  0  0  0  0
    0.8715   -0.7205   -1.8680 H   0  0  0  0  0  0  0  0  0  0  0  0
    1.6223    0.4922   -1.2516 H   0  0  0  0  0  0  0  0  0  0  0  0
    0.2544   -2.3427   -4.9890 O   0  0  0  0  0  0  0  0  0  0  0  0
   -0.5691   -1.8271   -4.9359 H   0  0  0  0  0  0  0  0  0  0  0  0
    0.8896   -1.7717   -5.4646 H   0  0  0  0  0  0  0  0  0  0  0  0
   -4.4653   -2.8736   -0.6938 O   0  0  0  0  0  0  0  0  0  0  0  0
   -4.0716   -2.5339   -1.5137 H   0  0  0  0  0  0  0  0  0  0  0  0
   -4.9243   -3.6790   -0.9467 H   0  0  0  0  0  0  0  0  0  0  0  0
    0.3335    0.9860   -4.2873 O   0  0  0  0  0  0  0  0  0  0  0  0
    0.6009    0.8473   -3.3589 H   0  0  0  0  0  0  0  0  0  0  0  0
   -0.4586    0.4274   -4.3984 H   0  0  0  0  0  0  0  0  0  0  0  0
    1.7468    0.0188   -6.9428 H   0  0  0  0  0  0  0  0  0  0  0  0
    1.4296    0.2369   -5.4352 H   0  0  0  0  0  0  0  0  0  0  0  0
    1.8702   -0.3690   -6.0720 O   0  0  0  0  0  0  0  0  0  0  0  0
  1  2  1  0  0  0  0
  2  3  1  0  0  0  0
  3  4  1  0  0  0  0
  4  5  1  0  0  0  0
  5  6  4  0  0  0  0
  5  7  4  0  0  0  0
  1  8  1  0  0  0  0
  1  9  1  0  0  0  0
  2 10  1  0  0  0  0
  2 11  1  0  0  0  0
  3 12  1  0  0  0  0
  3 13  1  0  0  0  0
  4 14  1  0  0  0  0
  4 15  1  0  0  0  0
  1 16  1  0  0  0  0
 17 18  1  0  0  0  0
 17 19  1  0  0  0  0
 20 21  1  0  0  0  0
 20 22  1  0  0  0  0
 23 24  1  0  0  0  0
 23 25  1  0  0  0  0
 26 27  1  0  0  0  0
 26 28  1  0  0  0  0
 29 30  1  0  0  0  0
 29 31  1  0  0  0  0
 32 33  1  0  0  0  0
 32 34  1  0  0  0  0
 35 36  1  0  0  0  0
 35 37  1  0  0  0  0
 38 39  1  0  0  0  0
 38 40  1  0  0  0  0
 41 42  1  0  0  0  0
 41 43  1  0  0  0  0
 44 45  1  0  0  0  0
 44 46  1  0  0  0  0
 47 49  1  0  0  0  0
 48 49  1  0  0  0  0
M  END
