 xtb: 6.7.1 (edcfbbe)
          06102522253D

 49 37  0     0  0            999 V2000
   -1.3015    0.4586    0.3871 N   0  0  0  0  0  0  0  0  0  0  0  0
   -2.6270    1.0393    0.1091 C   0  0  0  0  0  0  0  0  0  0  0  0
   -3.3472    0.2573   -0.9850 C   0  0  0  0  0  0  0  0  0  0  0  0
   -2.6855    0.4329   -2.3480 C   0  0  0  0  0  0  0  0  0  0  0  0
   -2.9984   -0.6633   -3.3607 C   0  0  0  0  0  0  0  0  0  0  0  0
   -2.3174   -0.6490   -4.4249 O   0  0  0  0  0  0  0  0  0  0  0  0
   -3.8613   -1.5372   -3.1176 O   0  0  0  0  0  0  0  0  0  0  0  0
   -0.9032    0.8656    1.2515 H   0  0  0  0  0  0  0  0  0  0  0  0
   -1.3694   -0.5864    0.4990 H   0  0  0  0  0  0  0  0  0  0  0  0
   -3.2220    0.9995    1.0211 H   0  0  0  0  0  0  0  0  0  0  0  0
   -2.5124    2.0819   -0.1892 H   0  0  0  0  0  0  0  0  0  0  0  0
   -4.3881    0.5760   -1.0433 H   0  0  0  0  0  0  0  0  0  0  0  0
   -3.3535   -0.7995   -0.7197 H   0  0  0  0  0  0  0  0  0  0  0  0
   -1.6001    0.4500   -2.2568 H   0  0  0  0  0  0  0  0  0  0  0  0
   -2.9842    1.3736   -2.8184 H   0  0  0  0  0  0  0  0  0  0  0  0
   -0.6393    0.6194   -0.3928 H   0  0  0  0  0  0  0  0  0  0  0  0
   -6.3708   -1.6105   -4.4429 O   0  0  0  0  0  0  0  0  0  0  0  0
   -5.5078   -1.5982   -3.9996 H   0  0  0  0  0  0  0  0  0  0  0  0
   -6.7959   -2.4321   -4.1738 H   0  0  0  0  0  0  0  0  0  0  0  0
   -1.2427   -2.2620    0.3427 O   0  0  0  0  0  0  0  0  0  0  0  0
   -0.5904   -2.3497   -0.3767 H   0  0  0  0  0  0  0  0  0  0  0  0
   -2.0433   -2.7086    0.0162 H   0  0  0  0  0  0  0  0  0  0  0  0
   -2.3124    1.8960   -5.7220 O   0  0  0  0  0  0  0  0  0  0  0  0
   -2.4454    0.9757   -5.4471 H   0  0  0  0  0  0  0  0  0  0  0  0
   -1.3551    2.0243   -5.7144 H   0  0  0  0  0  0  0  0  0  0  0  0
   -0.3135    1.5962    2.7403 O   0  0  0  0  0  0  0  0  0  0  0  0
    0.3493    2.2913    2.7792 H   0  0  0  0  0  0  0  0  0  0  0  0
   -0.2248    1.0578    3.5313 H   0  0  0  0  0  0  0  0  0  0  0  0
   -2.9163   -4.1940   -3.7200 O   0  0  0  0  0  0  0  0  0  0  0  0
   -2.0107   -4.0457   -4.0289 H   0  0  0  0  0  0  0  0  0  0  0  0
   -3.3277   -3.3144   -3.7278 H   0  0  0  0  0  0  0  0  0  0  0  0
    0.5281   -2.2864   -1.8175 O   0  0  0  0  0  0  0  0  0  0  0  0
    1.2974   -2.8620   -1.7807 H   0  0  0  0  0  0  0  0  0  0  0  0
    0.0912   -2.4757   -2.6774 H   0  0  0  0  0  0  0  0  0  0  0  0
    0.6744    0.4204   -1.6503 O   0  0  0  0  0  0  0  0  0  0  0  0
    0.6651   -0.5610   -1.6924 H   0  0  0  0  0  0  0  0  0  0  0  0
    1.5604    0.6708   -1.3709 H   0  0  0  0  0  0  0  0  0  0  0  0
   -0.5133   -2.7277   -4.2744 O   0  0  0  0  0  0  0  0  0  0  0  0
   -1.1844   -2.0404   -4.4396 H   0  0  0  0  0  0  0  0  0  0  0  0
    0.2550   -2.4565   -4.8212 H   0  0  0  0  0  0  0  0  0  0  0  0
   -3.4167   -3.3450   -1.0013 O   0  0  0  0  0  0  0  0  0  0  0  0
   -3.7061   -2.6747   -1.6436 H   0  0  0  0  0  0  0  0  0  0  0  0
   -3.2556   -4.1302   -1.5410 H   0  0  0  0  0  0  0  0  0  0  0  0
    0.1752    0.5980   -4.3986 O   0  0  0  0  0  0  0  0  0  0  0  0
    0.4019    0.6761   -3.4513 H   0  0  0  0  0  0  0  0  0  0  0  0
   -0.7085    0.1829   -4.4147 H   0  0  0  0  0  0  0  0  0  0  0  0
    1.4841   -1.3080   -6.5460 H   0  0  0  0  0  0  0  0  0  0  0  0
    1.1407   -0.6141   -5.1980 H   0  0  0  0  0  0  0  0  0  0  0  0
    1.4979   -1.4420   -5.5951 O   0  0  0  0  0  0  0  0  0  0  0  0
  1  2  1  0  0  0  0
  2  3  1  0  0  0  0
  3  4  1  0  0  0  0
  4  5  1  0  0  0  0
  5  6  4  0  0  0  0
  5  7  4  0  0  0  0
  1  8  1  0  0  0  0
  1  9  1  0  0  0  0
  2 10  1  0  0  0  0
  2 11  1  0  0  0  0
  3 12  1  0  0  0  0
  3 13  1  0  0  0  0
  4 14  1  0  0  0  0
  4 15  1  0  0  0  0
  1 16  1  0  0  0  0
 17 18  1  0  0  0  0
 17 19  1  0  0  0  0
 20 21  1  0  0  0  0
 20 22  1  0  0  0  0
 23 24  1  0  0  0  0
 23 25  1  0  0  0  0
 26 27  1  0  0  0  0
 26 28  1  0  0  0  0
 29 30  1  0  0  0  0
 29 31  1  0  0  0  0
 32 33  1  0  0  0  0
 32 34  1  0  0  0  0
 35 36  1  0  0  0  0
 35 37  1  0  0  0  0
 38 39  1  0  0  0  0
 38 40  1  0  0  0  0
 41 42  1  0  0  0  0
 41 43  1  0  0  0  0
 44 45  1  0  0  0  0
 44 46  1  0  0  0  0
 47 49  1  0  0  0  0
 48 49  1  0  0  0  0
M  END
