 xtb: 6.7.1 (edcfbbe)
          06092518063D

 37 29  0     0  0            999 V2000
   -0.6914   -0.9764    1.5700 N   0  0  0  0  0  0  0  0  0  0  0  0
    0.5198   -0.4117    0.9467 C   0  0  0  0  0  0  0  0  0  0  0  0
    0.1726    0.5896   -0.1529 C   0  0  0  0  0  0  0  0  0  0  0  0
   -0.1749   -0.0874   -1.4836 C   0  0  0  0  0  0  0  0  0  0  0  0
    1.1085   -0.5717   -2.1801 C   0  0  0  0  0  0  0  0  0  0  0  0
    1.8761    0.2778   -2.6637 O   0  0  0  0  0  0  0  0  0  0  0  0
    1.3273   -1.8181   -2.2033 O   0  0  0  0  0  0  0  0  0  0  0  0
   -0.4253   -1.7183    2.2730 H   0  0  0  0  0  0  0  0  0  0  0  0
   -1.2213   -0.2429    2.0418 H   0  0  0  0  0  0  0  0  0  0  0  0
    1.1117    0.0803    1.7188 H   0  0  0  0  0  0  0  0  0  0  0  0
    1.1142   -1.2219    0.5249 H   0  0  0  0  0  0  0  0  0  0  0  0
    1.0260    1.2473   -0.3337 H   0  0  0  0  0  0  0  0  0  0  0  0
   -0.6663    1.2111    0.1643 H   0  0  0  0  0  0  0  0  0  0  0  0
   -0.8509   -0.9293   -1.3419 H   0  0  0  0  0  0  0  0  0  0  0  0
   -0.6375    0.6389   -2.1543 H   0  0  0  0  0  0  0  0  0  0  0  0
   -1.3174   -1.4167    0.8593 H   0  0  0  0  0  0  0  0  0  0  0  0
   -2.4676   -2.1490   -0.1641 O   0  0  0  0  0  0  0  0  0  0  0  0
   -2.2344   -3.0348   -0.4969 H   0  0  0  0  0  0  0  0  0  0  0  0
   -3.4282   -2.1601   -0.0884 H   0  0  0  0  0  0  0  0  0  0  0  0
   -4.7688   -3.7747   -1.0771 O   0  0  0  0  0  0  0  0  0  0  0  0
   -3.9310   -4.2546   -1.1734 H   0  0  0  0  0  0  0  0  0  0  0  0
   -5.1425   -3.7108   -1.9600 H   0  0  0  0  0  0  0  0  0  0  0  0
    0.0561   -2.9079    3.3054 O   0  0  0  0  0  0  0  0  0  0  0  0
    0.8027   -3.3642    2.8656 H   0  0  0  0  0  0  0  0  0  0  0  0
   -0.5890   -3.5875    3.5214 H   0  0  0  0  0  0  0  0  0  0  0  0
    2.1238   -4.1402    2.0232 O   0  0  0  0  0  0  0  0  0  0  0  0
    2.3455   -3.7020    1.1836 H   0  0  0  0  0  0  0  0  0  0  0  0
    2.9521   -4.2342    2.5024 H   0  0  0  0  0  0  0  0  0  0  0  0
   -0.1982   -3.8882   -3.0637 O   0  0  0  0  0  0  0  0  0  0  0  0
    0.4316   -4.4437   -3.5324 H   0  0  0  0  0  0  0  0  0  0  0  0
    0.3092   -3.1115   -2.7524 H   0  0  0  0  0  0  0  0  0  0  0  0
   -2.0362   -4.6790   -1.2002 O   0  0  0  0  0  0  0  0  0  0  0  0
   -1.4383   -4.4237   -1.9291 H   0  0  0  0  0  0  0  0  0  0  0  0
   -1.5747   -5.3581   -0.6980 H   0  0  0  0  0  0  0  0  0  0  0  0
    2.9591   -2.7494   -0.2478 O   0  0  0  0  0  0  0  0  0  0  0  0
    3.8632   -2.6336   -0.5526 H   0  0  0  0  0  0  0  0  0  0  0  0
    2.3868   -2.4720   -0.9896 H   0  0  0  0  0  0  0  0  0  0  0  0
  1  2  1  0  0  0  0
  2  3  1  0  0  0  0
  3  4  1  0  0  0  0
  4  5  1  0  0  0  0
  5  6  2  0  0  0  0
  5  7  4  0  0  0  0
  1  8  1  0  0  0  0
  1  9  1  0  0  0  0
  2 10  1  0  0  0  0
  2 11  1  0  0  0  0
  3 12  1  0  0  0  0
  3 13  1  0  0  0  0
  4 14  1  0  0  0  0
  4 15  1  0  0  0  0
  1 16  1  0  0  0  0
 17 18  1  0  0  0  0
 17 19  1  0  0  0  0
 20 21  1  0  0  0  0
 20 22  1  0  0  0  0
 23 24  1  0  0  0  0
 23 25  1  0  0  0  0
 26 27  1  0  0  0  0
 26 28  1  0  0  0  0
 29 30  1  0  0  0  0
 29 31  1  0  0  0  0
 32 33  1  0  0  0  0
 32 34  1  0  0  0  0
 35 36  1  0  0  0  0
 35 37  1  0  0  0  0
M  END
