 xtb: 6.7.1 (edcfbbe)
          06092518023D

 37 29  0     0  0            999 V2000
   -0.9743   -0.3071    2.3302 N   0  0  0  0  0  0  0  0  0  0  0  0
   -0.5212   -0.9323    1.0754 C   0  0  0  0  0  0  0  0  0  0  0  0
   -0.2423    0.1237    0.0124 C   0  0  0  0  0  0  0  0  0  0  0  0
    0.1120   -0.5255   -1.3181 C   0  0  0  0  0  0  0  0  0  0  0  0
    0.4096    0.4831   -2.4461 C   0  0  0  0  0  0  0  0  0  0  0  0
    0.4210    1.6999   -2.1929 O   0  0  0  0  0  0  0  0  0  0  0  0
    0.6302   -0.0117   -3.5876 O   0  0  0  0  0  0  0  0  0  0  0  0
   -0.2889    0.4004    2.6475 H   0  0  0  0  0  0  0  0  0  0  0  0
   -1.8870    0.1816    2.1774 H   0  0  0  0  0  0  0  0  0  0  0  0
   -1.2934   -1.6115    0.7125 H   0  0  0  0  0  0  0  0  0  0  0  0
    0.3896   -1.5017    1.2602 H   0  0  0  0  0  0  0  0  0  0  0  0
    0.5831    0.7705    0.3145 H   0  0  0  0  0  0  0  0  0  0  0  0
   -1.1159    0.7603   -0.1317 H   0  0  0  0  0  0  0  0  0  0  0  0
   -0.6977   -1.1686   -1.6671 H   0  0  0  0  0  0  0  0  0  0  0  0
    1.0036   -1.1511   -1.2257 H   0  0  0  0  0  0  0  0  0  0  0  0
   -1.0955   -1.0207    3.0720 H   0  0  0  0  0  0  0  0  0  0  0  0
   -2.8638   -2.7630   -0.4358 O   0  0  0  0  0  0  0  0  0  0  0  0
   -2.5305   -3.0074   -1.3176 H   0  0  0  0  0  0  0  0  0  0  0  0
   -3.3831   -3.5137   -0.1307 H   0  0  0  0  0  0  0  0  0  0  0  0
   -1.2817   -2.3206    4.2610 O   0  0  0  0  0  0  0  0  0  0  0  0
   -0.5645   -2.9195    4.4848 H   0  0  0  0  0  0  0  0  0  0  0  0
   -2.1027   -2.8191    4.3036 H   0  0  0  0  0  0  0  0  0  0  0  0
   -2.0344   -3.4303   -2.9852 O   0  0  0  0  0  0  0  0  0  0  0  0
   -1.1204   -3.2199   -3.2536 H   0  0  0  0  0  0  0  0  0  0  0  0
   -2.5808   -3.2859   -3.7636 H   0  0  0  0  0  0  0  0  0  0  0  0
   -3.3973    0.9013    1.8659 O   0  0  0  0  0  0  0  0  0  0  0  0
   -3.6622    0.5482    0.9920 H   0  0  0  0  0  0  0  0  0  0  0  0
   -4.1400    0.7464    2.4565 H   0  0  0  0  0  0  0  0  0  0  0  0
    0.8217    1.6837    3.2251 O   0  0  0  0  0  0  0  0  0  0  0  0
    0.5344    2.5984    3.1597 H   0  0  0  0  0  0  0  0  0  0  0  0
    1.3167    1.5922    4.0449 H   0  0  0  0  0  0  0  0  0  0  0  0
    0.4348   -2.6420   -3.9159 O   0  0  0  0  0  0  0  0  0  0  0  0
    0.5146   -1.6624   -3.7907 H   0  0  0  0  0  0  0  0  0  0  0  0
    0.8240   -2.8259   -4.7759 H   0  0  0  0  0  0  0  0  0  0  0  0
   -3.9709   -0.2552   -0.5294 O   0  0  0  0  0  0  0  0  0  0  0  0
   -3.5643    0.1617   -1.2922 H   0  0  0  0  0  0  0  0  0  0  0  0
   -3.6006   -1.1632   -0.4869 H   0  0  0  0  0  0  0  0  0  0  0  0
  1  2  1  0  0  0  0
  2  3  1  0  0  0  0
  3  4  1  0  0  0  0
  4  5  1  0  0  0  0
  5  6  2  0  0  0  0
  5  7  4  0  0  0  0
  1  8  1  0  0  0  0
  1  9  1  0  0  0  0
  2 10  1  0  0  0  0
  2 11  1  0  0  0  0
  3 12  1  0  0  0  0
  3 13  1  0  0  0  0
  4 14  1  0  0  0  0
  4 15  1  0  0  0  0
  1 16  1  0  0  0  0
 17 18  1  0  0  0  0
 17 19  1  0  0  0  0
 20 21  1  0  0  0  0
 20 22  1  0  0  0  0
 23 24  1  0  0  0  0
 23 25  1  0  0  0  0
 26 27  1  0  0  0  0
 26 28  1  0  0  0  0
 29 30  1  0  0  0  0
 29 31  1  0  0  0  0
 32 33  1  0  0  0  0
 32 34  1  0  0  0  0
 35 36  1  0  0  0  0
 35 37  1  0  0  0  0
M  END
