          34
  Built with Packmol                                             
  C            0.000717       -0.522558        0.678044
  C            0.000155        0.093927        2.050368
  O           -0.000195       -0.630131        3.032262
  O           -0.000797        1.431559        2.216433
  C            0.000989        0.525311       -0.443260
  N           -0.000301       -0.116591       -1.756652
  H            0.902593       -1.162928        0.578888
  H           -0.902640       -1.160238        0.579017
  H           -0.902002        1.167413       -0.351037
  H            0.903666        1.168949       -0.351720
  H           -0.857069       -0.705532       -1.867523
  H            0.853228       -0.710069       -1.867795
  H            0.001656        0.620887       -2.497026
  O            1.778050       -2.796230        1.842434
  H            2.614064       -2.755804        2.371639
  H            1.065903       -2.548191        2.484256
  O            1.776489       -2.979693        4.539987
  H            0.897969       -2.875687        4.984955
  H            2.432908       -2.660680        5.209283
  O            1.441991        0.937764        6.085056
  H            0.483413        0.694816        6.032946
  H            1.504646        1.532516        6.874333
  O            2.939249       -0.226240        0.974980
  H            2.413388       -0.118579        1.807140
  H            3.282760       -1.154065        1.016857
  O            1.222465        2.359859        4.407435
  H            2.201848        2.220103        4.450895
  H            1.107464        3.116467        3.778998
  O            2.236346        2.046225        1.299628
  H            2.438935        2.046323        2.268941
  H            2.782774        2.785682        0.931888
  O            1.988012       -0.315717        3.957349
  H            2.874814       -0.755086        3.991242
  H            1.464969       -0.757022        4.673093
