          34
  Built with Packmol                                             
  C            0.000717       -0.522558        0.678044
  C            0.000155        0.093927        2.050368
  O           -0.000195       -0.630131        3.032262
  O           -0.000797        1.431559        2.216433
  C            0.000989        0.525311       -0.443260
  N           -0.000301       -0.116591       -1.756652
  H            0.902593       -1.162928        0.578888
  H           -0.902640       -1.160238        0.579017
  H           -0.902002        1.167413       -0.351037
  H            0.903666        1.168949       -0.351720
  H           -0.857069       -0.705532       -1.867523
  H            0.853228       -0.710069       -1.867795
  H            0.001656        0.620887       -2.497026
  O           -0.888481        0.749189        7.184704
  H           -1.714410        0.799925        6.640757
  H           -0.583024        1.688135        7.260142
  O           -1.870755        2.225485        4.966286
  H           -1.879242        3.213245        4.896505
  H           -2.627479        1.930243        4.399881
  O           -0.532715       -3.763308       -0.557645
  H           -0.581260       -4.295559       -1.391289
  H           -1.380177       -3.963180       -0.085976
  O           -1.688500        3.422940        0.305978
  H           -0.791005        3.382497        0.722485
  H           -2.162533        2.629068        0.660483
  O           -1.772048        3.356240        2.692370
  H           -0.820410        3.338917        2.965675
  H           -2.052299        4.296159        2.828839
  O            0.215938        2.696769        5.457583
  H            1.077122        2.411829        5.854801
  H            0.469709        3.347856        4.755943
  O           -3.694177        0.937419        1.020972
  H           -3.853856        0.298764        1.760724
  H           -2.920851        0.560607        0.530469
