          34
  Built with Packmol                                             
  C            0.000717       -0.522558        0.678044
  C            0.000155        0.093927        2.050368
  O           -0.000195       -0.630131        3.032262
  O           -0.000797        1.431559        2.216433
  C            0.000989        0.525311       -0.443260
  N           -0.000301       -0.116591       -1.756652
  H            0.902593       -1.162928        0.578888
  H           -0.902640       -1.160238        0.579017
  H           -0.902002        1.167413       -0.351037
  H            0.903666        1.168949       -0.351720
  H           -0.857069       -0.705532       -1.867523
  H            0.853228       -0.710069       -1.867795
  H            0.001656        0.620887       -2.497026
  O           -3.110842       -2.927533       -0.760382
  H           -2.632061       -2.261589       -0.205496
  H           -2.410883       -3.311568       -1.346203
  O            0.426583       -2.954671       -2.560929
  H           -0.020685       -2.281477       -3.133094
  H           -0.102862       -3.781432       -2.690411
  O           -2.719027        1.289069        2.136842
  H           -2.771058        2.194644        2.534130
  H           -3.563634        1.192006        1.629073
  O            2.026060       -4.370581       -1.690243
  H            1.278060       -4.981293       -1.470839
  H            2.084444       -4.394835       -2.678481
  O            2.727644       -2.130826        4.845812
  H            2.053962       -2.505500        5.467409
  H            2.639984       -2.678491        4.025452
  O           -3.943044        0.082123       -0.609597
  H           -3.082885        0.560993       -0.716470
  H           -3.823918       -0.462203        0.209018
  O           -2.184770       -2.549723        2.477696
  H           -2.892988       -1.863039        2.391071
  H           -2.439813       -3.252466        1.828297
