          37
  Built with Packmol                                             
  N            0.002605        0.268339        2.349498
  C            0.005610       -0.534268        1.127824
  C           -0.013605        0.360442       -0.117570
  C           -0.006580       -0.484114       -1.399583
  C            0.005309        0.346063       -2.655593
  O            0.015980        1.566588       -2.611145
  O            0.010136       -0.270580       -3.851920
  H            0.843830        0.889238        2.373417
  H           -0.867625        0.846216        2.397033
  H           -0.885896       -1.198618        1.124039
  H            0.917756       -1.170846        1.111005
  H            0.882890        1.016132       -0.103939
  H           -0.924881        0.997831       -0.099780
  H           -0.910028       -1.129127       -1.413513
  H            0.894287       -1.134110       -1.406828
  H            0.030211       -0.369186        3.177055
  O           -2.005107        2.844376        3.470244
  H           -1.406890        3.632912        3.439282
  H           -1.762834        2.382054        4.311776
  O            0.073198       -3.964387        0.241065
  H           -0.003198       -3.204712        0.871674
  H            1.047838       -4.082006        0.111236
  O            1.460187        2.927783        2.980861
  H            1.680206        3.412212        3.816044
  H            0.660315        3.392685        2.627756
  O           -1.045614       -3.762166       -2.582416
  H           -1.642471       -3.706580       -1.794201
  H           -0.483627       -2.948783       -2.525920
  O            0.390865       -3.942121        3.356899
  H            0.048000       -4.552561        2.656601
  H           -0.422606       -3.573787        3.784928
  O           -2.693935       -2.400776        1.252861
  H           -3.183436       -2.637655        2.080441
  H           -2.366744       -3.266905        0.901608
  O           -0.177257       -3.102106        5.882212
  H            0.105516       -2.160870        6.003562
  H           -1.164562       -3.058427        5.819488
