          37
  Built with Packmol                                             
  N            0.002605        0.268339        2.349498
  C            0.005610       -0.534268        1.127824
  C           -0.013605        0.360442       -0.117570
  C           -0.006580       -0.484114       -1.399583
  C            0.005309        0.346063       -2.655593
  O            0.015980        1.566588       -2.611145
  O            0.010136       -0.270580       -3.851920
  H            0.843830        0.889238        2.373417
  H           -0.867625        0.846216        2.397033
  H           -0.885896       -1.198618        1.124039
  H            0.917756       -1.170846        1.111005
  H            0.882890        1.016132       -0.103939
  H           -0.924881        0.997831       -0.099780
  H           -0.910028       -1.129127       -1.413513
  H            0.894287       -1.134110       -1.406828
  H            0.030211       -0.369186        3.177055
  O           -3.110053        1.152526        2.837592
  H           -4.033176        1.264745        3.177975
  H           -2.840931        0.249888        3.143257
  O            2.989049        0.815337        6.285726
  H            2.657901       -0.079763        6.549827
  H            2.220662        1.420157        6.441888
  O           -2.848784        1.309809        5.073575
  H           -3.072185        2.248789        4.852171
  H           -1.884817        1.227690        4.862298
  O            2.028554        3.206019        2.948958
  H            1.802275        3.419193        3.889152
  H            2.922390        2.782709        2.998749
  O            0.268604        0.511427       -6.583941
  H           -0.235172        0.813221       -7.381275
  H            1.215326        0.704427       -6.800923
  O           -3.081212        0.970556       -3.800595
  H           -3.356064        1.356766       -4.670025
  H           -2.595173        0.141629       -4.039886
  O           -1.593952        3.369487       -0.773940
  H           -2.128199        4.178759       -0.573267
  H           -1.074347        3.203960        0.052633
