          37
  Built with Packmol                                             
  N            0.002605        0.268339        2.349498
  C            0.005610       -0.534268        1.127824
  C           -0.013605        0.360442       -0.117570
  C           -0.006580       -0.484114       -1.399583
  C            0.005309        0.346063       -2.655593
  O            0.015980        1.566588       -2.611145
  O            0.010136       -0.270580       -3.851920
  H            0.843830        0.889238        2.373417
  H           -0.867625        0.846216        2.397033
  H           -0.885896       -1.198618        1.124039
  H            0.917756       -1.170846        1.111005
  H            0.882890        1.016132       -0.103939
  H           -0.924881        0.997831       -0.099780
  H           -0.910028       -1.129127       -1.413513
  H            0.894287       -1.134110       -1.406828
  H            0.030211       -0.369186        3.177055
  O           -1.413820        3.329356       -0.432873
  H           -2.132384        4.004955       -0.521427
  H           -0.595537        3.858942       -0.258044
  O            0.550677       -3.664381        3.125718
  H            1.141133       -3.677364        2.330857
  H           -0.337371       -3.932948        2.779514
  O           -0.960079       -3.066466       -2.602177
  H           -0.865383       -4.031514       -2.802993
  H           -1.938082       -2.915068       -2.567507
  O           -2.864216       -2.663047        0.344765
  H           -2.810568       -2.882577        1.308891
  H           -2.246134       -3.302920       -0.090150
  O           -0.413236       -2.965905        5.137442
  H           -0.962699       -2.574179        4.412699
  H           -1.051219       -3.113690        5.880241
  O           -1.141476        2.468463        4.284100
  H           -1.903815        2.442408        4.915584
  H           -0.525180        3.142472        4.666859
  O            0.679143       -3.649254        0.029188
  H           -0.129565       -3.918173        0.533454
  H            0.414749       -3.724475       -0.922153
