          37
  Built with Packmol                                             
  N            0.002605        0.268339        2.349498
  C            0.005610       -0.534268        1.127824
  C           -0.013605        0.360442       -0.117570
  C           -0.006580       -0.484114       -1.399583
  C            0.005309        0.346063       -2.655593
  O            0.015980        1.566588       -2.611145
  O            0.010136       -0.270580       -3.851920
  H            0.843830        0.889238        2.373417
  H           -0.867625        0.846216        2.397033
  H           -0.885896       -1.198618        1.124039
  H            0.917756       -1.170846        1.111005
  H            0.882890        1.016132       -0.103939
  H           -0.924881        0.997831       -0.099780
  H           -0.910028       -1.129127       -1.413513
  H            0.894287       -1.134110       -1.406828
  H            0.030211       -0.369186        3.177055
  O            0.526407       -4.608862       -3.661210
  H            1.289127       -4.040890       -3.937392
  H           -0.244001       -4.256034       -4.173653
  O           -2.405612       -2.637325       -5.798313
  H           -2.148357       -1.683713       -5.727214
  H           -1.866084       -3.092296       -5.103674
  O           -1.104261       -2.960737       -2.618734
  H           -0.839984       -2.313724       -3.320262
  H           -1.984623       -3.303132       -2.915958
  O            0.538004       -2.674988       -5.495060
  H            0.028065       -1.829531       -5.419069
  H            0.050847       -3.197791       -6.180602
  O            1.583484       -1.289524       -6.881428
  H            0.982864       -1.344214       -7.666842
  H            2.114173       -2.124849       -6.916285
  O            3.221116       -2.242200       -2.459168
  H            3.022630       -1.513795       -1.818355
  H            2.358399       -2.414731       -2.913663
  O           -0.122761       -4.290783       -0.683757
  H           -0.930412       -3.764987       -0.456053
  H            0.526595       -3.618735       -1.011328
