          37
  Built with Packmol                                             
  N            0.002605        0.268339        2.349498
  C            0.005610       -0.534268        1.127824
  C           -0.013605        0.360442       -0.117570
  C           -0.006580       -0.484114       -1.399583
  C            0.005309        0.346063       -2.655593
  O            0.015980        1.566588       -2.611145
  O            0.010136       -0.270580       -3.851920
  H            0.843830        0.889238        2.373417
  H           -0.867625        0.846216        2.397033
  H           -0.885896       -1.198618        1.124039
  H            0.917756       -1.170846        1.111005
  H            0.882890        1.016132       -0.103939
  H           -0.924881        0.997831       -0.099780
  H           -0.910028       -1.129127       -1.413513
  H            0.894287       -1.134110       -1.406828
  H            0.030211       -0.369186        3.177055
  O            2.233473       -2.828888        4.479982
  H            2.934934       -3.334228        3.997080
  H            2.689723       -2.480433        5.286845
  O           -1.796852       -3.126351       -3.563237
  H           -1.199824       -3.666024       -4.140230
  H           -1.867064       -3.646542       -2.723544
  O           -1.612681       -3.709451       -0.437703
  H           -2.361829       -3.834735        0.197665
  H           -0.981052       -3.113262        0.037918
  O            0.824396       -2.814387       -4.013337
  H            0.631611       -2.892753       -3.045192
  H            1.012427       -3.741933       -4.304740
  O            2.102215       -3.153061       -1.438093
  H            2.545635       -3.866194       -1.962909
  H            1.297205       -3.587882       -1.059276
  O           -1.014825       -3.817134        2.120334
  H           -0.047093       -3.682669        2.281662
  H           -1.442168       -3.611741        2.989704
  O           -0.184300       -3.487101        5.385543
  H            0.177319       -3.605627        4.471325
  H           -1.032953       -2.993878        5.254647
