          37
  Built with Packmol                                             
  N            0.002605        0.268339        2.349498
  C            0.005610       -0.534268        1.127824
  C           -0.013605        0.360442       -0.117570
  C           -0.006580       -0.484114       -1.399583
  C            0.005309        0.346063       -2.655593
  O            0.015980        1.566588       -2.611145
  O            0.010136       -0.270580       -3.851920
  H            0.843830        0.889238        2.373417
  H           -0.867625        0.846216        2.397033
  H           -0.885896       -1.198618        1.124039
  H            0.917756       -1.170846        1.111005
  H            0.882890        1.016132       -0.103939
  H           -0.924881        0.997831       -0.099780
  H           -0.910028       -1.129127       -1.413513
  H            0.894287       -1.134110       -1.406828
  H            0.030211       -0.369186        3.177055
  O            3.155935        1.073933        2.654868
  H            3.837833        0.689653        2.048275
  H            3.566565        1.021879        3.554471
  O            3.012024        0.055312       -1.124562
  H            3.013830       -0.061488       -0.141218
  H            3.937768       -0.160920       -1.401790
  O            2.646786        2.967657        1.667714
  H            2.016599        3.728168        1.596312
  H            2.289371        2.289578        1.040757
  O            3.057038       -1.112058        3.662136
  H            2.182948       -0.771850        3.344590
  H            3.547747       -1.346007        2.834437
  O            2.427691       -3.325641        3.054351
  H            2.243060       -4.294307        2.963748
  H            2.241577       -3.125565        4.006162
  O            2.059866        2.088152       -4.044031
  H            2.957317        2.456593       -3.845424
  H            2.190596        1.106584       -4.050860
  O            3.499511        3.159457       -0.558456
  H            2.679987        3.714746       -0.583885
  H            3.281544        2.369849       -1.114894
