          37
  Built with Packmol                                             
  N            0.002605        0.268339        2.349498
  C            0.005610       -0.534268        1.127824
  C           -0.013605        0.360442       -0.117570
  C           -0.006580       -0.484114       -1.399583
  C            0.005309        0.346063       -2.655593
  O            0.015980        1.566588       -2.611145
  O            0.010136       -0.270580       -3.851920
  H            0.843830        0.889238        2.373417
  H           -0.867625        0.846216        2.397033
  H           -0.885896       -1.198618        1.124039
  H            0.917756       -1.170846        1.111005
  H            0.882890        1.016132       -0.103939
  H           -0.924881        0.997831       -0.099780
  H           -0.910028       -1.129127       -1.413513
  H            0.894287       -1.134110       -1.406828
  H            0.030211       -0.369186        3.177055
  O            1.131058       -3.109347        3.715879
  H            1.772021       -2.519915        4.187416
  H            1.359148       -4.021883        4.025500
  O           -2.255464        1.211361       -4.879731
  H           -1.658739        0.695994       -5.478836
  H           -3.126923        0.744450       -4.935997
  O           -2.234932       -1.400261       -5.822129
  H           -3.184359       -1.211773       -6.031110
  H           -1.752045       -1.205176       -6.664373
  O           -3.259271       -1.297032       -2.384049
  H           -3.175747       -0.349911       -2.660810
  H           -2.487382       -1.748738       -2.809210
  O           -2.615825       -3.495470        1.673496
  H           -1.799741       -3.989074        1.407088
  H           -2.551557       -2.632068        1.192851
  O           -0.455824       -3.900074       -2.195680
  H            0.054944       -3.065517       -2.043231
  H           -1.013847       -3.707692       -2.990798
  O            0.456824       -4.205456        0.731253
  H            0.932119       -3.336722        0.733739
  H           -0.158825       -4.149218       -0.042327
