          37
  Built with Packmol                                             
  N            0.002605        0.268339        2.349498
  C            0.005610       -0.534268        1.127824
  C           -0.013605        0.360442       -0.117570
  C           -0.006580       -0.484114       -1.399583
  C            0.005309        0.346063       -2.655593
  O            0.015980        1.566588       -2.611145
  O            0.010136       -0.270580       -3.851920
  H            0.843830        0.889238        2.373417
  H           -0.867625        0.846216        2.397033
  H           -0.885896       -1.198618        1.124039
  H            0.917756       -1.170846        1.111005
  H            0.882890        1.016132       -0.103939
  H           -0.924881        0.997831       -0.099780
  H           -0.910028       -1.129127       -1.413513
  H            0.894287       -1.134110       -1.406828
  H            0.030211       -0.369186        3.177055
  O            3.187567        1.720763        1.196014
  H            3.380111        0.759155        1.058726
  H            2.999037        2.068133        0.288048
  O           -2.572835       -0.009952       -3.061835
  H           -2.611223        0.664264       -3.786108
  H           -2.692777       -0.877548       -3.523899
  O           -2.870725        2.623811        4.530868
  H           -2.346108        3.456443        4.640921
  H           -2.745256        2.136929        5.383990
  O            1.816785        3.467461       -2.300845
  H            0.915476        3.665696       -1.941741
  H            1.646215        2.946344       -3.125440
  O            0.130269        1.610624        6.326927
  H           -0.745804        1.162661        6.438442
  H           -0.064191        2.397889        5.758586
  O           -0.763470        3.463450        0.182419
  H           -1.211673        3.684416       -0.672507
  H            0.121087        3.904215        0.119976
  O           -0.701721        4.021330        2.760612
  H           -1.493367        3.598137        2.342502
  H           -0.453310        3.408729        3.497922
