          37
  Built with Packmol                                             
  N            0.002605        0.268339        2.349498
  C            0.005610       -0.534268        1.127824
  C           -0.013605        0.360442       -0.117570
  C           -0.006580       -0.484114       -1.399583
  C            0.005309        0.346063       -2.655593
  O            0.015980        1.566588       -2.611145
  O            0.010136       -0.270580       -3.851920
  H            0.843830        0.889238        2.373417
  H           -0.867625        0.846216        2.397033
  H           -0.885896       -1.198618        1.124039
  H            0.917756       -1.170846        1.111005
  H            0.882890        1.016132       -0.103939
  H           -0.924881        0.997831       -0.099780
  H           -0.910028       -1.129127       -1.413513
  H            0.894287       -1.134110       -1.406828
  H            0.030211       -0.369186        3.177055
  O            1.723750        1.047579       -4.362200
  H            2.330353        1.727338       -3.974164
  H            2.312470        0.479008       -4.919648
  O           -1.183257        0.744587       -7.568679
  H           -1.621421        0.357162       -6.769602
  H           -1.234825        0.029078       -8.251321
  O            1.073188        0.803121        7.435725
  H            0.813841        1.224884        8.293317
  H            0.406600        1.136501        6.783704
  O            0.416443       -1.567419       -6.802955
  H            0.358968       -0.591469       -6.645385
  H            0.005810       -1.699421       -7.694341
  O           -2.601254        1.273106       -1.678165
  H           -3.161411        0.759874       -2.313325
  H           -2.857626        2.217709       -1.828537
  O            1.916543       -1.144618        5.170806
  H            1.419246       -1.971294        4.947394
  H            2.274621       -0.828411        4.303393
  O           -0.415063        4.053091       -1.708156
  H            0.284029        3.800652       -2.362492
  H           -0.926595        3.218709       -1.557309
