 xtb: 6.7.1 (edcfbbe)
          06092517533D

 34 26  0     0  0            999 V2000
   -0.4841   -0.8679    0.9918 C   0  0  0  0  0  0  0  0  0  0  0  0
   -1.0092    0.2175    1.9458 C   0  0  0  0  0  0  0  0  0  0  0  0
   -1.4299   -0.1928    3.0711 O   0  0  0  0  0  0  0  0  0  0  0  0
   -1.0093    1.4033    1.5916 O   0  0  0  0  0  0  0  0  0  0  0  0
    0.1442   -0.2741   -0.2571 C   0  0  0  0  0  0  0  0  0  0  0  0
    0.3781   -1.3266   -1.2681 N   0  0  0  0  0  0  0  0  0  0  0  0
    0.2202   -1.4783    1.5594 H   0  0  0  0  0  0  0  0  0  0  0  0
   -1.3409   -1.4932    0.7344 H   0  0  0  0  0  0  0  0  0  0  0  0
   -0.5293    0.4844   -0.6579 H   0  0  0  0  0  0  0  0  0  0  0  0
    1.0812    0.2183    0.0044 H   0  0  0  0  0  0  0  0  0  0  0  0
   -0.5461   -1.7738   -1.5438 H   0  0  0  0  0  0  0  0  0  0  0  0
    0.9745   -2.0608   -0.8784 H   0  0  0  0  0  0  0  0  0  0  0  0
    0.8181   -0.9400   -2.1058 H   0  0  0  0  0  0  0  0  0  0  0  0
   -1.9576   -2.4903   -1.9131 O   0  0  0  0  0  0  0  0  0  0  0  0
   -2.2457   -3.0078   -1.1381 H   0  0  0  0  0  0  0  0  0  0  0  0
   -2.7203   -1.9882   -2.2133 H   0  0  0  0  0  0  0  0  0  0  0  0
    0.0007   -2.2447    4.2972 O   0  0  0  0  0  0  0  0  0  0  0  0
   -0.4435   -1.4510    3.9487 H   0  0  0  0  0  0  0  0  0  0  0  0
    0.2108   -2.0489    5.2129 H   0  0  0  0  0  0  0  0  0  0  0  0
   -1.9909    2.1222    4.3951 O   0  0  0  0  0  0  0  0  0  0  0  0
   -1.8539    2.7409    3.6683 H   0  0  0  0  0  0  0  0  0  0  0  0
   -1.8469    1.2388    3.9881 H   0  0  0  0  0  0  0  0  0  0  0  0
   -2.6488   -3.8088    0.3835 O   0  0  0  0  0  0  0  0  0  0  0  0
   -2.7012   -3.4223    1.2789 H   0  0  0  0  0  0  0  0  0  0  0  0
   -2.5430   -4.7557    0.5081 H   0  0  0  0  0  0  0  0  0  0  0  0
   -2.5387   -2.7628    2.9195 O   0  0  0  0  0  0  0  0  0  0  0  0
   -1.8459   -3.1630    3.4640 H   0  0  0  0  0  0  0  0  0  0  0  0
   -2.3545   -1.8083    2.9722 H   0  0  0  0  0  0  0  0  0  0  0  0
   -0.5757    2.7449    6.7279 O   0  0  0  0  0  0  0  0  0  0  0  0
   -1.0969    3.4691    7.0889 H   0  0  0  0  0  0  0  0  0  0  0  0
   -1.0522    2.4545    5.9280 H   0  0  0  0  0  0  0  0  0  0  0  0
    4.1547    0.7995    4.8274 O   0  0  0  0  0  0  0  0  0  0  0  0
    4.1186    0.4937    5.7401 H   0  0  0  0  0  0  0  0  0  0  0  0
    3.3646    1.3288    4.6798 H   0  0  0  0  0  0  0  0  0  0  0  0
  1  2  1  0  0  0  0
  2  3  4  0  0  0  0
  2  4  2  0  0  0  0
  1  5  1  0  0  0  0
  5  6  1  0  0  0  0
  1  7  1  0  0  0  0
  1  8  1  0  0  0  0
  5  9  1  0  0  0  0
  5 10  1  0  0  0  0
  6 11  1  0  0  0  0
  6 12  1  0  0  0  0
  6 13  1  0  0  0  0
 14 15  1  0  0  0  0
 14 16  1  0  0  0  0
 17 18  1  0  0  0  0
 17 19  1  0  0  0  0
 20 21  1  0  0  0  0
 20 22  1  0  0  0  0
 23 24  1  0  0  0  0
 23 25  1  0  0  0  0
 26 27  1  0  0  0  0
 26 28  1  0  0  0  0
 29 30  1  0  0  0  0
 29 31  1  0  0  0  0
 32 33  1  0  0  0  0
 32 34  1  0  0  0  0
M  END
