28

N        1.0978500000      0.9038700000      0.6441400000                 
C        0.7899100000      1.9146100000     -0.3682400000                 
C        0.6319200000      1.3058400000     -1.7742200000                 
C        1.8682500000      0.5788900000     -2.3331900000                 
C        3.0605600000      1.4777900000     -2.5197400000                 
O        3.5126900000      1.6659500000     -3.6376200000                 
O        3.6666400000      2.0438200000     -1.4599800000                 
H        1.1178900000      1.3615000000      1.5837400000                 
H        0.3639200000      0.1590700000      0.6471600000                 
H       -0.1704300000      2.4075300000     -0.1019500000                 
H        1.5691800000      2.7039500000     -0.3632200000                 
H        0.3486900000      2.1163900000     -2.4793000000                 
H       -0.2088400000      0.5790800000     -1.7440300000                 
H        2.1487800000     -0.2753700000     -1.6845800000                 
H        1.5822400000      0.1590400000     -3.3217100000                 
H        2.0357500000      0.4802000000      0.4669700000                 
O        2.1652306834     -1.4335746862      1.5482662011                 
H        1.9452057681     -1.8985619322      2.3943892109                 
H        3.1440394089     -1.5470813477      1.4499751701                 
O        0.0680625554      1.0798908391      4.0967811003                 
H       -0.3059374446      0.3639908391      4.6696811003                 
H        0.9542625554      0.7371908391      3.8180811003                 
O        5.8359271691     -1.2069500945     -4.5148699836                 
H        4.9252394914     -0.8191346096     -4.5440302891                 
H        5.9130669584     -1.5911537556     -3.6055271331                 
O        6.3458502749      2.0864539978     -0.8003459933                 
H        5.4608842541      1.6449094307     -0.7497372253                 
H        6.6387972724      2.1640520249      0.1423832588                 
