 xtb: 6.7.1 (edcfbbe)
          06102511293D

 28 23  0     0  0            999 V2000
    0.7293    0.3804    0.7420 N   0  0  0  0  0  0  0  0  0  0  0  0
    1.1549    1.3051   -0.3293 C   0  0  0  0  0  0  0  0  0  0  0  0
    1.1901    0.6271   -1.6949 C   0  0  0  0  0  0  0  0  0  0  0  0
    2.2950   -0.4268   -1.8388 C   0  0  0  0  0  0  0  0  0  0  0  0
    3.6961    0.1856   -1.6877 C   0  0  0  0  0  0  0  0  0  0  0  0
    4.1997    0.7856   -2.6586 O   0  0  0  0  0  0  0  0  0  0  0  0
    4.2724    0.0526   -0.5750 O   0  0  0  0  0  0  0  0  0  0  0  0
    0.4942    0.9162    1.6075 H   0  0  0  0  0  0  0  0  0  0  0  0
   -0.0931   -0.1482    0.4453 H   0  0  0  0  0  0  0  0  0  0  0  0
    0.4562    2.1410   -0.3712 H   0  0  0  0  0  0  0  0  0  0  0  0
    2.1466    1.6907   -0.0914 H   0  0  0  0  0  0  0  0  0  0  0  0
    1.3455    1.3891   -2.4602 H   0  0  0  0  0  0  0  0  0  0  0  0
    0.2295    0.1505   -1.8981 H   0  0  0  0  0  0  0  0  0  0  0  0
    2.1837   -1.2245   -1.1050 H   0  0  0  0  0  0  0  0  0  0  0  0
    2.2420   -0.8564   -2.8405 H   0  0  0  0  0  0  0  0  0  0  0  0
    1.5002   -0.2903    0.9822 H   0  0  0  0  0  0  0  0  0  0  0  0
    2.8775   -1.1963    1.3553 O   0  0  0  0  0  0  0  0  0  0  0  0
    3.3315   -1.1389    2.2011 H   0  0  0  0  0  0  0  0  0  0  0  0
    3.4851   -0.8060    0.6883 H   0  0  0  0  0  0  0  0  0  0  0  0
    0.1043    1.7905    3.0243 O   0  0  0  0  0  0  0  0  0  0  0  0
   -0.2891    1.3128    3.7611 H   0  0  0  0  0  0  0  0  0  0  0  0
    0.7357    2.4179    3.3871 H   0  0  0  0  0  0  0  0  0  0  0  0
    2.5902    2.0668   -4.4663 O   0  0  0  0  0  0  0  0  0  0  0  0
    3.2122    1.6136   -3.8607 H   0  0  0  0  0  0  0  0  0  0  0  0
    3.1149    2.3346   -5.2262 H   0  0  0  0  0  0  0  0  0  0  0  0
    6.6466    1.4153   -0.2174 O   0  0  0  0  0  0  0  0  0  0  0  0
    5.8198    0.8989   -0.3249 H   0  0  0  0  0  0  0  0  0  0  0  0
    6.8348    1.7753   -1.0890 H   0  0  0  0  0  0  0  0  0  0  0  0
  1  2  1  0  0  0  0
  2  3  1  0  0  0  0
  3  4  1  0  0  0  0
  4  5  1  0  0  0  0
  5  6  4  0  0  0  0
  5  7  4  0  0  0  0
  1  8  1  0  0  0  0
  1  9  1  0  0  0  0
  2 10  1  0  0  0  0
  2 11  1  0  0  0  0
  3 12  1  0  0  0  0
  3 13  1  0  0  0  0
  4 14  1  0  0  0  0
  4 15  1  0  0  0  0
  1 16  1  0  0  0  0
 17 18  1  0  0  0  0
 17 19  1  0  0  0  0
 20 21  1  0  0  0  0
 20 22  1  0  0  0  0
 23 24  1  0  0  0  0
 23 25  1  0  0  0  0
 26 27  1  0  0  0  0
 26 28  1  0  0  0  0
M  END
