46
Coordinates from ORCA-job input
  N          -0.04110811236699     -0.66958297123955      1.44370582253557
  C          -1.12595475145881     -0.13128404284524      0.57575275656754
  C          -0.59119996057710      0.84090243996181     -0.46110819190840
  C          -1.69511389057584      1.34555016305961     -1.39710088724372
  C          -2.37614785149879      0.21800776097011     -2.16415299078937
  O          -3.59743038912028      0.01324988681355     -1.97872122266900
  O          -1.64117798794114     -0.46262697983194     -2.95434461566258
  H           0.71071087447749     -1.10600133082751      0.87242834751012
  H           0.37698947387446      0.06886345159941      2.03417280533624
  H          -1.85872688419269      0.34481798530776      1.22590940551528
  H          -1.60056684600127     -0.99320944587600      0.10729737411585
  H           0.19697116303105      0.36185900690545     -1.04589606342301
  H          -0.13341404662802      1.69573390617193      0.04354798421516
  H          -2.44043861365875      1.90385665450466     -0.82971048830352
  H          -1.24975460455557      2.02323541441558     -2.12943205296551
  H          -0.42031213581584     -1.42360193799397      2.04250169211882
  O          -4.13708933310107     -2.84676649720349     -0.11144408622811
  H          -4.04781589971495     -1.93583287840975      0.20161703371122
  H          -4.40164118382362     -2.74104942545701     -1.05642667114977
  O          -1.60069854466703     -3.95539278186066      0.03730014107585
  H          -2.50580569700593     -3.57948002861903     -0.06248117827431
  H          -1.07258221222260     -3.53006924914146     -0.66077480691227
  O           0.68087460364592      0.61605073587362     -4.01444607005966
  H           0.44989239558567      1.50477797222328     -4.30964615092619
  H          -0.14395861786437      0.26378732223709     -3.61271724417264
  O          -0.10560521276186     -2.60376012423834     -2.05812409564222
  H           0.41902976006770     -2.88035979313537     -2.81916868004202
  H          -0.61108921773783     -1.81200534739969     -2.33951641490185
  O          -4.94919089935650      0.61817290266460      0.33900592410151
  H          -4.28908954459228      0.80503956356938      1.01720313307528
  H          -4.43760320817571      0.47756685378552     -0.48681350989773
  O           1.04128215424525      1.41897211069381      3.10460059216271
  H           0.48956775851333      1.55581522755252      3.88696465462862
  H           1.00951947303427      2.25880581908788      2.62701163544119
  O           1.85788285381668     -2.02540793156852     -0.16960582372531
  H           1.20772675441741     -2.27163320099892     -0.86345027337701
  H           2.13299944318067     -2.86244754652707      0.22781782760232
  O          -2.50916012755117     -2.85382719515456     -4.07005077262153
  H          -1.89329401399680     -3.45373446884815     -3.63010221244278
  H          -2.23284501034952     -1.95415815366558     -3.77018573008032
  O          -0.89514077331794     -3.13233259204015      2.57067145486712
  H          -1.70932468636017     -3.13692592494664      3.08932414580626
  H          -1.15548623951836     -3.45034110733485      1.67221265651871
  O          -4.87002206156383     -2.29564773774287     -2.70626778969102
  H          -4.14862082373369     -2.69889828692975     -3.22957455310493
  H          -4.53159403982168     -1.38742127355640     -2.55521793840862
