 xtb: 6.7.1 (edcfbbe)
          06092518033D

 37 29  0     0  0            999 V2000
   -1.4109   -1.1077    1.5797 N   0  0  0  0  0  0  0  0  0  0  0  0
   -0.9588   -0.5641    0.2927 C   0  0  0  0  0  0  0  0  0  0  0  0
    0.2895    0.2966    0.4636 C   0  0  0  0  0  0  0  0  0  0  0  0
    0.7909    0.8370   -0.8714 C   0  0  0  0  0  0  0  0  0  0  0  0
    1.3818   -0.2161   -1.8410 C   0  0  0  0  0  0  0  0  0  0  0  0
    1.4896   -1.4042   -1.4563 O   0  0  0  0  0  0  0  0  0  0  0  0
    1.7288    0.2000   -2.9646 O   0  0  0  0  0  0  0  0  0  0  0  0
   -0.6159   -1.5821    2.0812 H   0  0  0  0  0  0  0  0  0  0  0  0
   -1.7531   -0.3797    2.2114 H   0  0  0  0  0  0  0  0  0  0  0  0
   -1.7546    0.0273   -0.1629 H   0  0  0  0  0  0  0  0  0  0  0  0
   -0.7226   -1.3874   -0.3815 H   0  0  0  0  0  0  0  0  0  0  0  0
    1.0857   -0.2978    0.9132 H   0  0  0  0  0  0  0  0  0  0  0  0
    0.0735    1.1424    1.1187 H   0  0  0  0  0  0  0  0  0  0  0  0
   -0.0042    1.3470   -1.4209 H   0  0  0  0  0  0  0  0  0  0  0  0
    1.5905    1.5664   -0.7170 H   0  0  0  0  0  0  0  0  0  0  0  0
   -2.1808   -1.8245    1.4426 H   0  0  0  0  0  0  0  0  0  0  0  0
    1.3915   -3.2800    0.4713 O   0  0  0  0  0  0  0  0  0  0  0  0
    1.3756   -2.5745   -0.2061 H   0  0  0  0  0  0  0  0  0  0  0  0
    2.1644   -3.8122    0.2644 H   0  0  0  0  0  0  0  0  0  0  0  0
   -1.5253   -0.6283    4.3598 O   0  0  0  0  0  0  0  0  0  0  0  0
   -1.5805   -0.0865    5.1501 H   0  0  0  0  0  0  0  0  0  0  0  0
   -0.6175   -0.9536    4.2936 H   0  0  0  0  0  0  0  0  0  0  0  0
    0.6323   -2.2848    2.9625 O   0  0  0  0  0  0  0  0  0  0  0  0
    1.1201   -2.5860    2.1782 H   0  0  0  0  0  0  0  0  0  0  0  0
    0.2300   -3.0973    3.3284 H   0  0  0  0  0  0  0  0  0  0  0  0
   -0.6274   -4.6424    3.6032 O   0  0  0  0  0  0  0  0  0  0  0  0
   -0.2936   -5.4655    3.9664 H   0  0  0  0  0  0  0  0  0  0  0  0
   -0.7958   -4.7929    2.6506 H   0  0  0  0  0  0  0  0  0  0  0  0
   -2.8960   -3.0798    4.0800 O   0  0  0  0  0  0  0  0  0  0  0  0
   -2.1209   -3.6692    4.0837 H   0  0  0  0  0  0  0  0  0  0  0  0
   -2.5354   -2.1861    4.2260 H   0  0  0  0  0  0  0  0  0  0  0  0
   -0.9351   -4.7093    0.8774 O   0  0  0  0  0  0  0  0  0  0  0  0
   -0.1633   -4.1423    0.6731 H   0  0  0  0  0  0  0  0  0  0  0  0
   -0.9413   -5.4116    0.2234 H   0  0  0  0  0  0  0  0  0  0  0  0
   -3.1805   -3.1042    1.3921 O   0  0  0  0  0  0  0  0  0  0  0  0
   -2.5227   -3.7801    1.1512 H   0  0  0  0  0  0  0  0  0  0  0  0
   -3.2875   -3.1799    2.3679 H   0  0  0  0  0  0  0  0  0  0  0  0
  1  2  1  0  0  0  0
  2  3  1  0  0  0  0
  3  4  1  0  0  0  0
  4  5  1  0  0  0  0
  5  6  4  0  0  0  0
  5  7  2  0  0  0  0
  1  8  1  0  0  0  0
  1  9  1  0  0  0  0
  2 10  1  0  0  0  0
  2 11  1  0  0  0  0
  3 12  1  0  0  0  0
  3 13  1  0  0  0  0
  4 14  1  0  0  0  0
  4 15  1  0  0  0  0
  1 16  1  0  0  0  0
 17 18  1  0  0  0  0
 17 19  1  0  0  0  0
 20 21  1  0  0  0  0
 20 22  1  0  0  0  0
 23 24  1  0  0  0  0
 23 25  1  0  0  0  0
 26 27  1  0  0  0  0
 26 28  1  0  0  0  0
 29 30  1  0  0  0  0
 29 31  1  0  0  0  0
 32 33  1  0  0  0  0
 32 34  1  0  0  0  0
 35 36  1  0  0  0  0
 35 37  1  0  0  0  0
M  END
