 xtb: 6.7.1 (edcfbbe)
          06092517593D

 34 26  0     0  0            999 V2000
    1.1955   -1.1733    0.7280 H   0  0  0  0  0  0  0  0  0  0  0  0
    0.2108   -1.6081    0.5530 C   0  0  0  0  0  0  0  0  0  0  0  0
    0.2479   -0.7811   -1.3530 H   0  0  0  0  0  0  0  0  0  0  0  0
    0.3412   -2.6619    0.3070 H   0  0  0  0  0  0  0  0  0  0  0  0
   -0.4128   -0.8907   -0.5812 N   0  0  0  0  0  0  0  0  0  0  0  0
   -0.2183   -1.9729    2.6443 H   0  0  0  0  0  0  0  0  0  0  0  0
   -0.6510   -1.4409    1.7992 C   0  0  0  0  0  0  0  0  0  0  0  0
   -0.9484    0.8792    1.2790 O   0  0  0  0  0  0  0  0  0  0  0  0
   -0.8100    0.0379    2.2111 C   0  0  0  0  0  0  0  0  0  0  0  0
   -0.6882    0.0416   -0.1657 H   0  0  0  0  0  0  0  0  0  0  0  0
   -0.8000    0.3163    3.4208 O   0  0  0  0  0  0  0  0  0  0  0  0
   -1.2525   -1.3736   -0.9089 H   0  0  0  0  0  0  0  0  0  0  0  0
   -1.6566   -1.8358    1.6373 H   0  0  0  0  0  0  0  0  0  0  0  0
   -1.0955    3.5589    1.6338 O   0  0  0  0  0  0  0  0  0  0  0  0
   -1.1039    2.5789    1.5250 H   0  0  0  0  0  0  0  0  0  0  0  0
   -0.3881    3.8771    1.0646 H   0  0  0  0  0  0  0  0  0  0  0  0
    4.1513    0.0217    2.6701 O   0  0  0  0  0  0  0  0  0  0  0  0
    3.9263    0.9165    2.9427 H   0  0  0  0  0  0  0  0  0  0  0  0
    4.0604   -0.5402    3.4452 H   0  0  0  0  0  0  0  0  0  0  0  0
   -3.5949    4.7517    1.1625 O   0  0  0  0  0  0  0  0  0  0  0  0
   -2.7297    4.3257    1.3087 H   0  0  0  0  0  0  0  0  0  0  0  0
   -3.9625    4.8969    2.0379 H   0  0  0  0  0  0  0  0  0  0  0  0
   -3.3501   -3.9418    4.6018 O   0  0  0  0  0  0  0  0  0  0  0  0
   -3.4232   -3.2368    5.2536 H   0  0  0  0  0  0  0  0  0  0  0  0
   -2.7830   -4.6179    4.9861 H   0  0  0  0  0  0  0  0  0  0  0  0
    2.4668   -3.3083   -0.8299 O   0  0  0  0  0  0  0  0  0  0  0  0
    2.8556   -2.4715   -0.5246 H   0  0  0  0  0  0  0  0  0  0  0  0
    3.0542   -4.0045   -0.5215 H   0  0  0  0  0  0  0  0  0  0  0  0
    3.4502   -0.8037    0.0801 O   0  0  0  0  0  0  0  0  0  0  0  0
    3.7320   -0.5928    0.9861 H   0  0  0  0  0  0  0  0  0  0  0  0
    4.0387   -0.3112   -0.4993 H   0  0  0  0  0  0  0  0  0  0  0  0
   -0.1959    2.9214    4.2559 O   0  0  0  0  0  0  0  0  0  0  0  0
   -0.4087    1.9807    4.1045 H   0  0  0  0  0  0  0  0  0  0  0  0
   -0.5455    3.3749    3.4713 H   0  0  0  0  0  0  0  0  0  0  0  0
  1  2  1  0  0  0  0
  2  4  1  0  0  0  0
  2  5  1  0  0  0  0
  3  5  1  0  0  0  0
  2  7  1  0  0  0  0
  6  7  1  0  0  0  0
  7  9  1  0  0  0  0
  8  9  4  0  0  0  0
  5 10  1  0  0  0  0
  9 11  2  0  0  0  0
  5 12  1  0  0  0  0
  7 13  1  0  0  0  0
 14 15  1  0  0  0  0
 14 16  1  0  0  0  0
 17 18  1  0  0  0  0
 17 19  1  0  0  0  0
 20 21  1  0  0  0  0
 20 22  1  0  0  0  0
 23 24  1  0  0  0  0
 23 25  1  0  0  0  0
 26 27  1  0  0  0  0
 26 28  1  0  0  0  0
 29 30  1  0  0  0  0
 29 31  1  0  0  0  0
 32 33  1  0  0  0  0
 32 34  1  0  0  0  0
M  END
