 xtb: 6.7.1 (edcfbbe)
          06092518083D

 37 29  0     0  0            999 V2000
   -0.2047   -1.5165    0.8522 N   0  0  0  0  0  0  0  0  0  0  0  0
    0.0731   -0.1353    0.4328 C   0  0  0  0  0  0  0  0  0  0  0  0
   -0.5516    0.1403   -0.9332 C   0  0  0  0  0  0  0  0  0  0  0  0
    0.1796   -0.5294   -2.1069 C   0  0  0  0  0  0  0  0  0  0  0  0
   -0.2000   -1.9911   -2.4162 C   0  0  0  0  0  0  0  0  0  0  0  0
   -0.4128   -2.2874   -3.6094 O   0  0  0  0  0  0  0  0  0  0  0  0
   -0.2427   -2.8181   -1.4712 O   0  0  0  0  0  0  0  0  0  0  0  0
    0.4457   -1.9006    1.5606 H   0  0  0  0  0  0  0  0  0  0  0  0
   -1.1643   -1.6392    1.2145 H   0  0  0  0  0  0  0  0  0  0  0  0
   -0.3311    0.5637    1.1649 H   0  0  0  0  0  0  0  0  0  0  0  0
    1.1516    0.0122    0.3685 H   0  0  0  0  0  0  0  0  0  0  0  0
   -0.5331    1.2169   -1.1057 H   0  0  0  0  0  0  0  0  0  0  0  0
   -1.5962   -0.1749   -0.9334 H   0  0  0  0  0  0  0  0  0  0  0  0
    1.2590   -0.5175   -1.9329 H   0  0  0  0  0  0  0  0  0  0  0  0
   -0.0100    0.0258   -3.0274 H   0  0  0  0  0  0  0  0  0  0  0  0
   -0.1413   -2.1237   -0.0103 H   0  0  0  0  0  0  0  0  0  0  0  0
    3.0549   -5.5647   -5.8185 O   0  0  0  0  0  0  0  0  0  0  0  0
    2.5347   -4.9287   -6.3187 H   0  0  0  0  0  0  0  0  0  0  0  0
    2.7489   -5.5201   -4.9072 H   0  0  0  0  0  0  0  0  0  0  0  0
   -2.5188   -2.7715    1.8116 O   0  0  0  0  0  0  0  0  0  0  0  0
   -2.0060   -3.5265    1.4364 H   0  0  0  0  0  0  0  0  0  0  0  0
   -3.4268   -2.8808    1.5218 H   0  0  0  0  0  0  0  0  0  0  0  0
   -0.7806   -4.5610    0.7838 O   0  0  0  0  0  0  0  0  0  0  0  0
   -0.6009   -4.2503   -0.1136 H   0  0  0  0  0  0  0  0  0  0  0  0
   -0.0034   -4.3177    1.3149 H   0  0  0  0  0  0  0  0  0  0  0  0
    1.0232   -3.2261    2.6315 O   0  0  0  0  0  0  0  0  0  0  0  0
    1.8447   -3.3397    3.1140 H   0  0  0  0  0  0  0  0  0  0  0  0
    0.3067   -3.1500    3.2999 H   0  0  0  0  0  0  0  0  0  0  0  0
   -2.3070   -4.1416   -4.4236 O   0  0  0  0  0  0  0  0  0  0  0  0
   -1.6454   -3.4705   -4.1658 H   0  0  0  0  0  0  0  0  0  0  0  0
   -1.8267   -4.9740   -4.4819 H   0  0  0  0  0  0  0  0  0  0  0  0
   -1.1681   -2.9691    4.2163 O   0  0  0  0  0  0  0  0  0  0  0  0
   -1.5330   -3.7223    4.6884 H   0  0  0  0  0  0  0  0  0  0  0  0
   -1.7692   -2.7996    3.4649 H   0  0  0  0  0  0  0  0  0  0  0  0
   -0.4711    3.5211   -1.4383 O   0  0  0  0  0  0  0  0  0  0  0  0
    0.2955    4.1018   -1.4591 H   0  0  0  0  0  0  0  0  0  0  0  0
   -1.2122    4.0165   -1.8001 H   0  0  0  0  0  0  0  0  0  0  0  0
  1  2  1  0  0  0  0
  2  3  1  0  0  0  0
  3  4  1  0  0  0  0
  4  5  1  0  0  0  0
  5  6  4  0  0  0  0
  5  7  4  0  0  0  0
  1  8  1  0  0  0  0
  1  9  1  0  0  0  0
  2 10  1  0  0  0  0
  2 11  1  0  0  0  0
  3 12  1  0  0  0  0
  3 13  1  0  0  0  0
  4 14  1  0  0  0  0
  4 15  1  0  0  0  0
  1 16  1  0  0  0  0
 17 18  1  0  0  0  0
 17 19  1  0  0  0  0
 20 21  1  0  0  0  0
 20 22  1  0  0  0  0
 23 24  1  0  0  0  0
 23 25  1  0  0  0  0
 26 27  1  0  0  0  0
 26 28  1  0  0  0  0
 29 30  1  0  0  0  0
 29 31  1  0  0  0  0
 32 33  1  0  0  0  0
 32 34  1  0  0  0  0
 35 36  1  0  0  0  0
 35 37  1  0  0  0  0
M  END
