 xtb: 6.7.1 (edcfbbe)
          06092518043D

 37 29  0     0  0            999 V2000
   -0.7356    0.2901    2.5552 N   0  0  0  0  0  0  0  0  0  0  0  0
   -1.0384    0.3896    1.1148 C   0  0  0  0  0  0  0  0  0  0  0  0
   -0.0380    1.3106    0.4146 C   0  0  0  0  0  0  0  0  0  0  0  0
    0.0997    0.9834   -1.0687 C   0  0  0  0  0  0  0  0  0  0  0  0
    1.0561   -0.2027   -1.3662 C   0  0  0  0  0  0  0  0  0  0  0  0
    1.7098   -0.7004   -0.4203 O   0  0  0  0  0  0  0  0  0  0  0  0
    1.1256   -0.5730   -2.5558 O   0  0  0  0  0  0  0  0  0  0  0  0
    0.1668   -0.2192    2.6598 H   0  0  0  0  0  0  0  0  0  0  0  0
   -0.6445    1.2180    2.9711 H   0  0  0  0  0  0  0  0  0  0  0  0
   -2.0509    0.7681    0.9767 H   0  0  0  0  0  0  0  0  0  0  0  0
   -0.9804   -0.6080    0.6779 H   0  0  0  0  0  0  0  0  0  0  0  0
    0.9513    1.1815    0.8579 H   0  0  0  0  0  0  0  0  0  0  0  0
   -0.3352    2.3547    0.5258 H   0  0  0  0  0  0  0  0  0  0  0  0
   -0.8613    0.7442   -1.5278 H   0  0  0  0  0  0  0  0  0  0  0  0
    0.5178    1.8304   -1.6201 H   0  0  0  0  0  0  0  0  0  0  0  0
   -1.4836   -0.2387    3.0699 H   0  0  0  0  0  0  0  0  0  0  0  0
   -2.1717   -2.6451   -0.1400 O   0  0  0  0  0  0  0  0  0  0  0  0
   -3.0786   -2.6426   -0.4649 H   0  0  0  0  0  0  0  0  0  0  0  0
   -1.6565   -3.1832   -0.7486 H   0  0  0  0  0  0  0  0  0  0  0  0
    2.4587   -1.7608   -7.4466 O   0  0  0  0  0  0  0  0  0  0  0  0
    2.8935   -1.0493   -6.9656 H   0  0  0  0  0  0  0  0  0  0  0  0
    2.0045   -2.3017   -6.7921 H   0  0  0  0  0  0  0  0  0  0  0  0
   -1.9977   -3.3448    2.6023 O   0  0  0  0  0  0  0  0  0  0  0  0
   -2.0130   -3.1136    1.6586 H   0  0  0  0  0  0  0  0  0  0  0  0
   -2.3875   -2.5796    3.0631 H   0  0  0  0  0  0  0  0  0  0  0  0
    1.6431   -1.0959    2.2707 O   0  0  0  0  0  0  0  0  0  0  0  0
    1.6651   -1.0567    1.2936 H   0  0  0  0  0  0  0  0  0  0  0  0
    2.5342   -0.8949    2.5688 H   0  0  0  0  0  0  0  0  0  0  0  0
   -2.5985   -1.0273    4.0378 O   0  0  0  0  0  0  0  0  0  0  0  0
   -1.9736   -1.2484    4.7700 H   0  0  0  0  0  0  0  0  0  0  0  0
   -3.3728   -0.6239    4.4379 H   0  0  0  0  0  0  0  0  0  0  0  0
    0.4214   -3.0930    3.8302 O   0  0  0  0  0  0  0  0  0  0  0  0
    0.9006   -2.5114    3.2150 H   0  0  0  0  0  0  0  0  0  0  0  0
   -0.4073   -3.3381    3.3637 H   0  0  0  0  0  0  0  0  0  0  0  0
   -0.7247   -1.7022    5.8115 O   0  0  0  0  0  0  0  0  0  0  0  0
   -0.9132   -2.3199    6.5233 H   0  0  0  0  0  0  0  0  0  0  0  0
   -0.1938   -2.2087    5.1482 H   0  0  0  0  0  0  0  0  0  0  0  0
  1  2  1  0  0  0  0
  2  3  1  0  0  0  0
  3  4  1  0  0  0  0
  4  5  1  0  0  0  0
  5  6  4  0  0  0  0
  5  7  4  0  0  0  0
  1  8  1  0  0  0  0
  1  9  1  0  0  0  0
  2 10  1  0  0  0  0
  2 11  1  0  0  0  0
  3 12  1  0  0  0  0
  3 13  1  0  0  0  0
  4 14  1  0  0  0  0
  4 15  1  0  0  0  0
  1 16  1  0  0  0  0
 17 18  1  0  0  0  0
 17 19  1  0  0  0  0
 20 21  1  0  0  0  0
 20 22  1  0  0  0  0
 23 24  1  0  0  0  0
 23 25  1  0  0  0  0
 26 27  1  0  0  0  0
 26 28  1  0  0  0  0
 29 30  1  0  0  0  0
 29 31  1  0  0  0  0
 32 33  1  0  0  0  0
 32 34  1  0  0  0  0
 35 36  1  0  0  0  0
 35 37  1  0  0  0  0
M  END
