 xtb: 6.7.1 (edcfbbe)
          06112501093D

 28 23  0     0  0            999 V2000
    0.9189   -0.1937   -0.4662 N   0  0  0  0  0  0  0  0  0  0  0  0
    2.3899   -0.2926   -0.4009 C   0  0  0  0  0  0  0  0  0  0  0  0
    3.0411    0.7122   -1.3444 C   0  0  0  0  0  0  0  0  0  0  0  0
    4.5625    0.6460   -1.2907 C   0  0  0  0  0  0  0  0  0  0  0  0
    5.2259    1.8289   -2.0337 C   0  0  0  0  0  0  0  0  0  0  0  0
    4.6188    2.9179   -2.0667 O   0  0  0  0  0  0  0  0  0  0  0  0
    6.3542    1.6129   -2.5355 O   0  0  0  0  0  0  0  0  0  0  0  0
    0.6114    0.7756   -0.2386 H   0  0  0  0  0  0  0  0  0  0  0  0
    0.5907   -0.4132   -1.4083 H   0  0  0  0  0  0  0  0  0  0  0  0
    2.6979   -1.3035   -0.6690 H   0  0  0  0  0  0  0  0  0  0  0  0
    2.7119   -0.0940    0.6208 H   0  0  0  0  0  0  0  0  0  0  0  0
    2.7528    1.7312   -1.0808 H   0  0  0  0  0  0  0  0  0  0  0  0
    2.7274    0.5348   -2.3747 H   0  0  0  0  0  0  0  0  0  0  0  0
    4.9568   -0.2743   -1.7237 H   0  0  0  0  0  0  0  0  0  0  0  0
    4.9159    0.7140   -0.2583 H   0  0  0  0  0  0  0  0  0  0  0  0
    0.4814   -0.8550    0.2150 H   0  0  0  0  0  0  0  0  0  0  0  0
    0.0471    2.3974    0.0444 O   0  0  0  0  0  0  0  0  0  0  0  0
    0.2886    2.9505    0.7921 H   0  0  0  0  0  0  0  0  0  0  0  0
   -0.1586    2.9802   -0.6912 H   0  0  0  0  0  0  0  0  0  0  0  0
    3.1512    4.9350   -3.3570 O   0  0  0  0  0  0  0  0  0  0  0  0
    3.6512    4.2393   -2.8991 H   0  0  0  0  0  0  0  0  0  0  0  0
    3.8138    5.4878   -3.7814 H   0  0  0  0  0  0  0  0  0  0  0  0
   -0.5979   -2.7606    1.0898 H   0  0  0  0  0  0  0  0  0  0  0  0
   -0.0996   -1.9811    1.3505 O   0  0  0  0  0  0  0  0  0  0  0  0
   -0.4395   -1.6807    2.1983 H   0  0  0  0  0  0  0  0  0  0  0  0
    8.0510    3.3314   -3.8279 O   0  0  0  0  0  0  0  0  0  0  0  0
    8.6847    2.7002   -4.1843 H   0  0  0  0  0  0  0  0  0  0  0  0
    7.3946    2.7881   -3.3420 H   0  0  0  0  0  0  0  0  0  0  0  0
  1  2  1  0  0  0  0
  2  3  1  0  0  0  0
  3  4  1  0  0  0  0
  4  5  1  0  0  0  0
  5  6  4  0  0  0  0
  5  7  4  0  0  0  0
  1  8  1  0  0  0  0
  1  9  1  0  0  0  0
  2 10  1  0  0  0  0
  2 11  1  0  0  0  0
  3 12  1  0  0  0  0
  3 13  1  0  0  0  0
  4 14  1  0  0  0  0
  4 15  1  0  0  0  0
  1 16  1  0  0  0  0
 17 18  1  0  0  0  0
 17 19  1  0  0  0  0
 20 21  1  0  0  0  0
 20 22  1  0  0  0  0
 23 24  1  0  0  0  0
 24 25  1  0  0  0  0
 26 27  1  0  0  0  0
 26 28  1  0  0  0  0
M  END
