         163
  Built with Packmol                                             
  C            0.000717       -0.522558        0.678044
  C            0.000155        0.093927        2.050368
  O           -0.000195       -0.630131        3.032262
  O           -0.000797        1.431559        2.216433
  C            0.000989        0.525311       -0.443260
  N           -0.000301       -0.116591       -1.756652
  H            0.902593       -1.162928        0.578888
  H           -0.902640       -1.160238        0.579017
  H           -0.902002        1.167413       -0.351037
  H            0.903666        1.168949       -0.351720
  H           -0.857069       -0.705532       -1.867523
  H            0.853228       -0.710069       -1.867795
  H            0.001656        0.620887       -2.497026
  O           -0.002166       -2.936080        1.529912
  H           -0.971057       -2.811565        1.692257
  H            0.438604       -2.413294        2.246173
  O            0.682661        2.640989        3.656411
  H            0.429245        3.541112        3.982246
  H            1.255779        2.269785        4.373597
  O            1.928601       -3.617431        2.810304
  H            2.360966       -3.974461        1.994093
  H            1.111966       -4.166877        2.919059
  O           -3.059774        3.706036        1.345637
  H           -2.693772        4.495633        1.818067
  H           -3.626545        3.253996        2.020206
  O           -3.496744       -0.270686        1.025555
  H           -4.139104       -0.053807        0.303788
  H           -3.672856        0.406591        1.726193
  O           -1.859020       -2.599455       -1.794632
  H           -1.765103       -2.195604       -0.895357
  H           -2.471967       -3.365442       -1.659826
  O            1.688225        3.594884       -0.315076
  H            2.597584        3.983650       -0.264693
  H            1.449371        3.646000       -1.274737
  O           -2.171824        1.463604       -2.849001
  H           -1.543438        1.251838       -3.584458
  H           -2.900608        1.973403       -3.284422
  O           -0.564546        2.322080        6.081165
  H           -0.650706        3.199267        5.629801
  H            0.406744        2.222369        6.246290
  O           -2.509362        0.624551        3.387877
  H           -1.937390        0.832239        2.606644
  H           -2.929539        1.489422        3.624652
  O           -1.252775        3.623489        2.895244
  H           -1.784202        2.821870        2.659442
  H           -1.599565        3.899375        3.780816
  O           -1.293143        2.524806       -5.097645
  H           -2.269954        2.367559       -5.139161
  H           -1.172178        3.131651       -4.324521
  O            3.111637       -0.955822       -1.108657
  H            2.715720       -0.120153       -1.462944
  H            2.337129       -1.476123       -0.776938
  O            0.184960       -1.492338       -4.082476
  H           -0.487097       -1.990014       -3.552129
  H           -0.174507       -0.571232       -4.136879
  O            2.908003        3.262273        4.882400
  H            2.317400        4.057019        4.895713
  H            3.575392        3.437201        5.592756
  O            2.277787        1.392557       -5.309010
  H            2.017262        0.924797       -6.142040
  H            3.141957        0.981873       -5.053742
  O            3.401788       -1.289245       -3.053088
  H            3.206610       -1.631024       -3.961770
  H            3.674433       -0.347945       -3.195325
  O            4.611651       -2.103957       -0.506078
  H            4.383780       -2.459133       -1.401921
  H            3.899991       -2.452914        0.087541
  O           -3.071725       -0.601872       -1.488553
  H           -3.570027        0.222547       -1.717989
  H           -2.470788       -0.330993       -0.749559
  O            1.096530       -3.019831       -2.606230
  H            0.541027       -2.686459       -1.857304
  H            1.659620       -2.246122       -2.861019
  O           -0.834411        2.704306        0.920082
  H           -1.542237        2.961631        0.277138
  H            0.008546        2.786076        0.406906
  O            1.409165       -1.397001        4.230151
  H            2.325279       -1.456272        4.601411
  H            1.124562       -2.339095        4.120276
  O           -2.490898       -0.565245       -5.404176
  H           -2.527943        0.365494       -5.068076
  H           -2.150498       -0.481232       -6.330288
  O            3.667922        3.071909       -1.998407
  H            4.421445        2.713519       -2.531671
  H            3.979836        3.961340       -1.694705
  O            2.183239        3.054645       -3.332990
  H            2.809827        2.353765       -3.644061
  H            1.427480        2.553145       -2.935574
  O            1.889955       -3.687383       -0.702641
  H            2.059024       -3.223501        0.155753
  H            2.619796       -3.381465       -1.297922
  O            0.085706        0.535592       -6.417522
  H           -0.680969        0.775513       -5.838507
  H            0.391407       -0.341305       -6.073703
  O           -0.297060        5.068196        0.341874
  H            0.686731        5.181144        0.339084
  H           -0.483892        4.500836       -0.447942
  O            3.483412        0.225634        1.078915
  H            4.153571       -0.486790        1.233669
  H            2.669157       -0.258224        0.789980
  O            1.596226       -2.487059        6.626035
  H            2.218149       -1.717797        6.580669
  H            0.812547       -2.204425        6.090704
  O            1.827431       -2.625172       -5.012941
  H            1.340853       -2.047361       -5.653244
  H            1.122594       -3.182026       -4.596131
  O           -0.276090       -5.036918       -1.811621
  H            0.689337       -4.817381       -1.830731
  H           -0.724700       -4.210172       -2.121224
  O           -2.830889        1.444548        0.095356
  H           -2.736844        1.798739       -0.824598
  H           -3.567441        1.974938        0.491324
  O           -2.908230       -1.214060        2.731468
  H           -3.061040       -2.191707        2.769763
  H           -2.097374       -1.111400        2.172375
  O            0.656728        2.456973       -4.769650
  H            0.574439        2.329254       -5.748183
  H            0.423038        1.575400       -4.383863
  O           -1.015191       -3.832672       -0.026058
  H           -0.062291       -3.764494       -0.286717
  H           -1.185802       -4.806005        0.038192
  O            3.271343       -2.126671        1.956107
  H            2.320494       -1.995762        1.712470
  H            3.297042       -1.991613        2.936776
  O            1.966454        0.516552        4.997977
  H            1.607332       -0.000823        5.762153
  H            2.946963        0.388219        5.050378
  O            2.974568        1.822398        0.018959
  H            3.537033        1.553886       -0.750551
  H            3.545275        2.442425        0.539029
  O           -2.268702        0.459765        6.313100
  H           -1.306242        0.484103        6.544812
  H           -2.337258        0.993097        5.481553
  O            0.299059        4.294454       -2.793633
  H           -0.658226        4.541723       -2.849085
  H            0.576900        4.165339       -3.735305
  O           -3.151563       -2.213112        0.760580
  H           -3.574166       -1.922936       -0.086660
  H           -2.781985       -3.109480        0.559211
  O           -1.515810       -0.928720        5.097041
  H           -0.538157       -1.081792        5.134117
  H           -1.875939       -1.437431        5.866542
  O           -0.693307        0.850137        4.167963
  H           -1.039480        1.777687        4.188600
  H           -0.004775        0.826406        4.879281
  O            2.633957        0.262275        3.078650
  H            2.534580        1.167912        2.690632
  H            1.925597       -0.274068        2.641414
  O            1.723663       -0.338778       -3.629232
  H            1.749168       -0.385228       -4.618071
  H            1.883083        0.616239       -3.421527
  O           -1.484637       -3.097877        3.602524
  H           -1.152125       -2.165513        3.575252
  H           -2.020398       -3.145992        4.433943
  O            1.805358        3.717710        1.875897
  H            0.830492        3.890202        1.853678
  H            1.895878        2.769920        1.603659
  O           -1.129817       -2.143232       -5.433147
  H           -0.768542       -3.042628       -5.230223
  H           -0.796571       -1.941625       -6.343594
  O           -0.980671        2.982231       -1.640688
  H           -1.881423        3.234198       -1.965913
  H           -0.553682        2.535137       -2.414252
