         163
  Built with Packmol                                             
  C            0.000717       -0.522558        0.678044
  C            0.000155        0.093927        2.050368
  O           -0.000195       -0.630131        3.032262
  O           -0.000797        1.431559        2.216433
  C            0.000989        0.525311       -0.443260
  N           -0.000301       -0.116591       -1.756652
  H            0.902593       -1.162928        0.578888
  H           -0.902640       -1.160238        0.579017
  H           -0.902002        1.167413       -0.351037
  H            0.903666        1.168949       -0.351720
  H           -0.857069       -0.705532       -1.867523
  H            0.853228       -0.710069       -1.867795
  H            0.001656        0.620887       -2.497026
  O            2.842616        1.686744       -5.131922
  H            2.539782        2.620192       -4.999338
  H            3.477202        1.523949       -4.389351
  O            0.648169        2.555393       -2.828616
  H            0.532376        2.437585       -1.852233
  H           -0.092640        3.155816       -3.095650
  O           -2.293776       -0.462112       -5.910073
  H           -1.659949       -0.514667       -5.151052
  H           -2.336687        0.502198       -6.131154
  O           -4.018895       -1.056514        2.291784
  H           -3.646212       -1.936175        2.031178
  H           -4.162191       -0.583684        1.433582
  O           -2.919132        0.070335        0.010103
  H           -2.433609       -0.016842       -0.848546
  H           -3.653397        0.705937       -0.183492
  O            3.397007       -1.719644       -0.704848
  H            3.339797       -1.554975       -1.679641
  H            2.463421       -1.900477       -0.428569
  O           -3.141824       -1.466003       -3.641948
  H           -2.311526       -1.039849       -3.310875
  H           -2.862309       -1.953794       -4.457143
  O            1.134343       -1.424711       -6.197045
  H            1.005955       -0.515083       -5.827309
  H            1.784435       -1.852074       -5.584383
  O           -2.203360        3.606979        1.043341
  H           -3.172165        3.811986        1.043998
  H           -2.124836        2.781390        0.502185
  O           -0.871594        1.313584       -5.039486
  H           -0.817941        1.528795       -4.074387
  H           -1.336872        2.089905       -5.441301
  O            0.950832       -2.792637        4.849772
  H            0.019042       -3.105029        4.971385
  H            1.420429       -3.564605        4.444609
  O           -1.975518        1.739762        2.202113
  H           -1.873173        0.798876        1.910789
  H           -1.938252        1.698801        3.190822
  O            2.041046       -2.657203        2.305872
  H            1.905980       -2.752307        1.329489
  H            1.281069       -2.098978        2.608252
  O            0.479517       -1.745559       -4.073826
  H            0.934454       -0.891248       -3.864553
  H           -0.480815       -1.559503       -3.919685
  O            3.615214        1.953543       -1.224980
  H            2.631089        2.022170       -1.138962
  H            3.755250        1.336201       -1.986486
  O            0.145282        4.612853        1.954867
  H            1.131588        4.603477        1.866980
  H           -0.153484        5.314000        1.322612
  O           -1.005151       -2.261960       -5.944190
  H           -0.224488       -2.870900       -5.963402
  H           -0.809146       -1.585267       -6.640093
  O           -0.958454        5.743949       -1.764406
  H           -1.531014        5.608730       -0.967850
  H           -1.488905        5.377942       -2.516253
  O           -2.767748        2.708522       -4.137684
  H           -1.935351        3.174664       -3.872284
  H           -3.207838        2.479409       -3.280689
  O            2.671759       -0.267445       -4.748885
  H            3.043076       -0.300682       -5.666289
  H            3.228766       -0.902913       -4.232613
  O            1.968040        4.036519       -3.080400
  H            1.324222        4.391549       -2.417028
  H            2.548260        3.425248       -2.560491
  O            0.736124       -4.243555       -2.450649
  H            0.189605       -4.115184       -1.634899
  H            0.139585       -3.974418       -3.193832
  O            2.042041        1.139159       -3.051644
  H            1.457376        1.037436       -3.844380
  H            2.333978        0.217175       -2.838731
  O           -2.096454       -2.838367        4.332348
  H           -2.828060       -2.726329        3.674464
  H           -1.673386       -3.699884        4.088597
  O            1.316555        3.105360       -0.091888
  H            1.820462        3.932698        0.113538
  H            0.949236        2.815435        0.780828
  O            0.271560       -3.478104        0.313999
  H           -0.356241       -4.243258        0.282130
  H           -0.065939       -2.910847        1.052191
  O            2.043274        0.904078        4.530734
  H            2.214548        1.677806        5.124551
  H            2.941559        0.532381        4.342220
  O           -2.511382        1.936949       -1.268069
  H           -1.810431        1.915316       -1.967219
  H           -2.903627        2.843519       -1.337974
  O           -0.309341        4.025476       -0.977601
  H           -0.535636        3.885820       -0.023716
  H           -1.112046        3.719740       -1.470353
  O           -0.660021        2.682175        5.618925
  H            0.171614        3.031352        5.210183
  H           -1.288829        2.587585        4.859803
  O            2.526506       -1.426099        4.689339
  H            2.807512       -2.167207        4.095702
  H            1.721819       -1.049436        4.252054
  O            0.746921        3.273735        3.310278
  H            1.117260        2.392165        3.567753
  H           -0.230497        3.125245        3.253535
  O            3.179872        0.301515       -0.193487
  H            2.483305        0.051150       -0.851303
  H            2.701167        0.849188        0.478456
  O            2.469509       -2.726558       -3.921480
  H            1.721836       -3.306285       -4.213907
  H            2.137379       -2.290400       -3.096817
  O            2.224203        1.091582        2.527792
  H            1.896353        0.169117        2.676736
  H            3.201960        0.990981        2.407444
  O           -3.898091        1.837463        2.740732
  H           -3.696485        0.868039        2.727232
  H           -3.897332        2.104332        1.787111
  O            3.645543       -1.254218        1.744995
  H            2.805881       -0.966908        1.305640
  H            3.547538       -0.958384        2.684937
  O            2.371991        3.063723        2.163993
  H            2.965093        2.902626        2.940453
  H            2.862191        2.680504        1.393630
  O           -2.458817       -0.455157        4.224689
  H           -2.815900        0.435592        4.468962
  H           -2.944509       -1.086896        4.812586
  O           -1.276028        0.098137        6.528068
  H           -1.398388        1.080318        6.559040
  H           -0.620266       -0.092917        7.245067
  O           -1.641859       -3.082660       -3.346393
  H           -2.519933       -3.521024       -3.214351
  H           -1.393871       -3.300189       -4.280093
  O            0.055878        1.087705        4.648440
  H           -0.832058        0.673771        4.504080
  H            0.327901        0.783096        5.550566
  O           -3.595846        0.482017       -3.488299
  H           -3.192894        0.602674       -2.591816
  H           -2.865731        0.701905       -4.120118
  O           -2.547477       -2.278463        0.396177
  H           -3.392963       -2.716244        0.123942
  H           -1.840642       -2.922756        0.139496
  O            0.543284        2.723206       -4.941414
  H            0.529130        2.620417       -5.926222
  H            0.835868        3.657648       -4.793679
  O           -1.666501       -2.081646        2.180211
  H           -0.932321       -2.379748        2.774119
  H           -1.841819       -1.145960        2.452918
  O           -0.112157       -1.111016        5.046098
  H           -1.027216       -1.425049        5.257431
  H            0.379294       -1.184262        5.902676
  O            0.553081       -4.534554        2.037341
  H            0.386920       -3.881311        2.762789
  H            1.539670       -4.602128        1.985499
  O            1.943732       -3.807216       -0.732306
  H            2.409417       -3.544216       -1.565720
  H            2.671376       -3.949934       -0.075969
  O           -3.241850       -2.282674       -1.822203
  H           -3.622593       -1.375902       -1.706402
  H           -2.271784       -2.166966       -1.660354
