 xtb: 6.7.1 (edcfbbe)
          06092518013D

 37 29  0     0  0            999 V2000
    1.5296   -0.6726    0.5597 N   0  0  0  0  0  0  0  0  0  0  0  0
    0.0994   -0.4329    0.2662 C   0  0  0  0  0  0  0  0  0  0  0  0
    0.0205    0.2470   -1.0955 C   0  0  0  0  0  0  0  0  0  0  0  0
   -1.3193    0.1247   -1.8195 C   0  0  0  0  0  0  0  0  0  0  0  0
   -1.0910    0.7973   -3.1836 C   0  0  0  0  0  0  0  0  0  0  0  0
   -1.3343    2.0164   -3.2885 O   0  0  0  0  0  0  0  0  0  0  0  0
   -0.5692    0.0945   -4.0893 O   0  0  0  0  0  0  0  0  0  0  0  0
    1.8158   -1.5371    0.0266 H   0  0  0  0  0  0  0  0  0  0  0  0
    2.0946    0.1217    0.2024 H   0  0  0  0  0  0  0  0  0  0  0  0
   -0.3496    0.1986    1.0317 H   0  0  0  0  0  0  0  0  0  0  0  0
   -0.4241   -1.3885    0.2408 H   0  0  0  0  0  0  0  0  0  0  0  0
    0.7706   -0.2024   -1.7462 H   0  0  0  0  0  0  0  0  0  0  0  0
    0.2458    1.3082   -0.9927 H   0  0  0  0  0  0  0  0  0  0  0  0
   -2.1176    0.6476   -1.2922 H   0  0  0  0  0  0  0  0  0  0  0  0
   -1.5894   -0.9200   -1.9741 H   0  0  0  0  0  0  0  0  0  0  0  0
    1.7019   -0.8186    1.5542 H   0  0  0  0  0  0  0  0  0  0  0  0
    1.1843   -2.0143   -3.3597 O   0  0  0  0  0  0  0  0  0  0  0  0
    2.0115   -1.4818   -3.3703 H   0  0  0  0  0  0  0  0  0  0  0  0
    0.4914   -1.4070   -3.6712 H   0  0  0  0  0  0  0  0  0  0  0  0
    2.1427    0.6496   -7.6194 O   0  0  0  0  0  0  0  0  0  0  0  0
    1.4421    0.0818   -7.9553 H   0  0  0  0  0  0  0  0  0  0  0  0
    2.9791    0.2495   -7.8805 H   0  0  0  0  0  0  0  0  0  0  0  0
    3.2773   -0.2762   -3.1267 O   0  0  0  0  0  0  0  0  0  0  0  0
    2.8996    0.3160   -3.8020 H   0  0  0  0  0  0  0  0  0  0  0  0
    3.2386    0.2306   -2.2940 H   0  0  0  0  0  0  0  0  0  0  0  0
    1.7956    1.2448   -4.8906 O   0  0  0  0  0  0  0  0  0  0  0  0
    1.9284    1.1882   -5.8524 H   0  0  0  0  0  0  0  0  0  0  0  0
    0.9102    0.8622   -4.7224 H   0  0  0  0  0  0  0  0  0  0  0  0
    1.8400   -2.9371   -0.8708 O   0  0  0  0  0  0  0  0  0  0  0  0
    2.6633   -3.4098   -1.0171 H   0  0  0  0  0  0  0  0  0  0  0  0
    1.4989   -2.7036   -1.7573 H   0  0  0  0  0  0  0  0  0  0  0  0
    2.9324    1.3804   -0.8484 O   0  0  0  0  0  0  0  0  0  0  0  0
    2.3757    1.9614   -1.3993 H   0  0  0  0  0  0  0  0  0  0  0  0
    3.6748    1.9164   -0.5545 H   0  0  0  0  0  0  0  0  0  0  0  0
    1.3983    2.8743   -2.6563 O   0  0  0  0  0  0  0  0  0  0  0  0
    1.7345    2.5083   -3.4928 H   0  0  0  0  0  0  0  0  0  0  0  0
    0.4373    2.8612   -2.7676 H   0  0  0  0  0  0  0  0  0  0  0  0
  1  2  1  0  0  0  0
  2  3  1  0  0  0  0
  3  4  1  0  0  0  0
  4  5  1  0  0  0  0
  5  6  2  0  0  0  0
  5  7  4  0  0  0  0
  1  8  1  0  0  0  0
  1  9  1  0  0  0  0
  2 10  1  0  0  0  0
  2 11  1  0  0  0  0
  3 12  1  0  0  0  0
  3 13  1  0  0  0  0
  4 14  1  0  0  0  0
  4 15  1  0  0  0  0
  1 16  1  0  0  0  0
 17 18  1  0  0  0  0
 17 19  1  0  0  0  0
 20 21  1  0  0  0  0
 20 22  1  0  0  0  0
 23 24  1  0  0  0  0
 23 25  1  0  0  0  0
 26 27  1  0  0  0  0
 26 28  1  0  0  0  0
 29 30  1  0  0  0  0
 29 31  1  0  0  0  0
 32 33  1  0  0  0  0
 32 34  1  0  0  0  0
 35 36  1  0  0  0  0
 35 37  1  0  0  0  0
M  END
