 xtb: 6.7.1 (edcfbbe)
          06092518033D

 37 29  0     0  0            999 V2000
    0.0682   -0.6314    2.2062 N   0  0  0  0  0  0  0  0  0  0  0  0
   -0.3272   -0.3440    0.8155 C   0  0  0  0  0  0  0  0  0  0  0  0
    0.8740   -0.4181   -0.1209 C   0  0  0  0  0  0  0  0  0  0  0  0
    0.4725   -0.1216   -1.5614 C   0  0  0  0  0  0  0  0  0  0  0  0
   -0.2574   -1.2772   -2.2739 C   0  0  0  0  0  0  0  0  0  0  0  0
   -0.4894   -2.3348   -1.6528 O   0  0  0  0  0  0  0  0  0  0  0  0
   -0.5663   -1.0750   -3.4748 O   0  0  0  0  0  0  0  0  0  0  0  0
    0.5555   -1.5438    2.2433 H   0  0  0  0  0  0  0  0  0  0  0  0
    0.6929    0.0939    2.5587 H   0  0  0  0  0  0  0  0  0  0  0  0
   -0.7811    0.6453    0.7521 H   0  0  0  0  0  0  0  0  0  0  0  0
   -1.0651   -1.0784    0.4964 H   0  0  0  0  0  0  0  0  0  0  0  0
    1.3015   -1.4215   -0.0911 H   0  0  0  0  0  0  0  0  0  0  0  0
    1.6326    0.3048    0.1827 H   0  0  0  0  0  0  0  0  0  0  0  0
   -0.1864    0.7473   -1.6112 H   0  0  0  0  0  0  0  0  0  0  0  0
    1.3465    0.0987   -2.1791 H   0  0  0  0  0  0  0  0  0  0  0  0
   -0.7947   -0.6892    2.8350 H   0  0  0  0  0  0  0  0  0  0  0  0
    1.4863   -3.1087    2.2051 O   0  0  0  0  0  0  0  0  0  0  0  0
    1.5313   -3.6160    3.0228 H   0  0  0  0  0  0  0  0  0  0  0  0
    2.3338   -3.2039    1.7621 H   0  0  0  0  0  0  0  0  0  0  0  0
   -2.0678   -0.8981    3.7708 O   0  0  0  0  0  0  0  0  0  0  0  0
   -1.7317   -1.1419    4.6516 H   0  0  0  0  0  0  0  0  0  0  0  0
   -2.4655   -1.7124    3.4018 H   0  0  0  0  0  0  0  0  0  0  0  0
   -0.9796   -1.6033    6.2551 O   0  0  0  0  0  0  0  0  0  0  0  0
   -0.8603   -0.9228    6.9241 H   0  0  0  0  0  0  0  0  0  0  0  0
   -1.2792   -2.4013    6.7004 H   0  0  0  0  0  0  0  0  0  0  0  0
   -1.8131   -3.1847   -4.6511 O   0  0  0  0  0  0  0  0  0  0  0  0
   -1.3722   -2.3819   -4.2869 H   0  0  0  0  0  0  0  0  0  0  0  0
   -1.7678   -3.8329   -3.9404 H   0  0  0  0  0  0  0  0  0  0  0  0
   -0.8982   -3.6955    0.7646 O   0  0  0  0  0  0  0  0  0  0  0  0
   -0.8182   -3.2958   -0.1159 H   0  0  0  0  0  0  0  0  0  0  0  0
   -0.0335   -3.5657    1.1921 H   0  0  0  0  0  0  0  0  0  0  0  0
   -1.7217    2.5046   -0.7051 O   0  0  0  0  0  0  0  0  0  0  0  0
   -1.5029    3.4419   -0.7321 H   0  0  0  0  0  0  0  0  0  0  0  0
   -2.6151    2.4157   -1.0493 H   0  0  0  0  0  0  0  0  0  0  0  0
   -2.8961   -3.2125    2.5793 O   0  0  0  0  0  0  0  0  0  0  0  0
   -2.1906   -3.4412    1.9400 H   0  0  0  0  0  0  0  0  0  0  0  0
   -3.7261   -3.3287    2.1116 H   0  0  0  0  0  0  0  0  0  0  0  0
  1  2  1  0  0  0  0
  2  3  1  0  0  0  0
  3  4  1  0  0  0  0
  4  5  1  0  0  0  0
  5  6  4  0  0  0  0
  5  7  4  0  0  0  0
  1  8  1  0  0  0  0
  1  9  1  0  0  0  0
  2 10  1  0  0  0  0
  2 11  1  0  0  0  0
  3 12  1  0  0  0  0
  3 13  1  0  0  0  0
  4 14  1  0  0  0  0
  4 15  1  0  0  0  0
  1 16  1  0  0  0  0
 17 18  1  0  0  0  0
 17 19  1  0  0  0  0
 20 21  1  0  0  0  0
 20 22  1  0  0  0  0
 23 24  1  0  0  0  0
 23 25  1  0  0  0  0
 26 27  1  0  0  0  0
 26 28  1  0  0  0  0
 29 30  1  0  0  0  0
 29 31  1  0  0  0  0
 32 33  1  0  0  0  0
 32 34  1  0  0  0  0
 35 36  1  0  0  0  0
 35 37  1  0  0  0  0
M  END
