          37
  Built with Packmol                                             
  N           -0.443767       -0.471812        1.745205
  C            0.693510        0.104360        1.026899
  C            0.252325        0.999585       -0.146245
  C           -0.573823        0.306802       -1.244857
  C            0.172762       -0.788129       -1.957711
  O            0.408222       -0.687945       -3.151027
  O            0.546344       -1.903284       -1.303739
  H           -0.087472       -1.004114        2.571270
  H           -1.081184        0.285863        2.081386
  H            1.280979        0.732860        1.731174
  H            1.368045       -0.703734        0.677139
  H            1.158667        1.443130       -0.611175
  H           -0.355788        1.834342        0.265274
  H           -1.517364       -0.100802       -0.829235
  H           -0.852734        1.086771       -1.985872
  H           -0.968720       -1.133893        1.131516
  O            1.996312       -3.001253       -2.870733
  H            2.474612       -2.138333       -2.955639
  H            1.173533       -2.882865       -3.408908
  O            1.172842        2.478683        3.568155
  H            0.523009        3.013588        4.089889
  H            1.627463        1.913839        4.242605
  O           -1.117239       -2.367741       -4.102991
  H           -0.456121       -2.923051       -4.587928
  H           -1.199406       -1.545976       -4.649400
  O            1.071849        0.676547        6.157658
  H            0.566985        0.387080        6.958864
  H            0.463483        0.487758        5.399461
  O            2.076866       -1.204015       -5.703784
  H            1.207356       -1.655634       -5.560247
  H            2.265426       -0.749865       -4.844246
  O            2.656362       -3.228968        0.570181
  H            1.714381       -3.534362        0.566083
  H            2.676676       -2.496083        1.235824
  O            1.043691       -2.988822        4.156733
  H            1.550841       -2.138622        4.180599
  H            0.117442       -2.719009        3.933402
