 xtb: 6.7.1 (edcfbbe)
          06092518063D

 37 29  0     0  0            999 V2000
    0.2953   -0.3335    1.5453 N   0  0  0  0  0  0  0  0  0  0  0  0
    1.3706    0.2583    0.7315 C   0  0  0  0  0  0  0  0  0  0  0  0
    0.8111    1.0373   -0.4584 C   0  0  0  0  0  0  0  0  0  0  0  0
   -0.2963    0.2991   -1.2299 C   0  0  0  0  0  0  0  0  0  0  0  0
    0.0427   -1.1710   -1.5162 C   0  0  0  0  0  0  0  0  0  0  0  0
    0.4744   -1.4711   -2.6587 O   0  0  0  0  0  0  0  0  0  0  0  0
   -0.1359   -1.9952   -0.5938 O   0  0  0  0  0  0  0  0  0  0  0  0
    0.6740   -0.9291    2.3166 H   0  0  0  0  0  0  0  0  0  0  0  0
   -0.3080    0.3903    1.9764 H   0  0  0  0  0  0  0  0  0  0  0  0
    1.9698    0.9269    1.3475 H   0  0  0  0  0  0  0  0  0  0  0  0
    2.0099   -0.5503    0.3728 H   0  0  0  0  0  0  0  0  0  0  0  0
    1.6297    1.2488   -1.1474 H   0  0  0  0  0  0  0  0  0  0  0  0
    0.3984    1.9902   -0.1249 H   0  0  0  0  0  0  0  0  0  0  0  0
   -1.2326    0.3145   -0.6686 H   0  0  0  0  0  0  0  0  0  0  0  0
   -0.4578    0.8030   -2.1831 H   0  0  0  0  0  0  0  0  0  0  0  0
   -0.2351   -0.9688    0.9204 H   0  0  0  0  0  0  0  0  0  0  0  0
    1.0618   -4.0749   -3.4889 O   0  0  0  0  0  0  0  0  0  0  0  0
    2.0174   -4.1835   -3.4532 H   0  0  0  0  0  0  0  0  0  0  0  0
    0.8754   -3.2086   -3.0784 H   0  0  0  0  0  0  0  0  0  0  0  0
   -0.8474    1.4188    3.3428 O   0  0  0  0  0  0  0  0  0  0  0  0
   -0.9741    2.3575    3.4969 H   0  0  0  0  0  0  0  0  0  0  0  0
   -0.3074    1.0781    4.0757 H   0  0  0  0  0  0  0  0  0  0  0  0
   -0.7854   -2.3612   -5.0928 O   0  0  0  0  0  0  0  0  0  0  0  0
   -0.3991   -3.2455   -5.0425 H   0  0  0  0  0  0  0  0  0  0  0  0
   -0.4596   -1.9180   -4.2956 H   0  0  0  0  0  0  0  0  0  0  0  0
    0.8697    0.2899    5.3572 O   0  0  0  0  0  0  0  0  0  0  0  0
    1.7389    0.6907    5.4619 H   0  0  0  0  0  0  0  0  0  0  0  0
    0.5074    0.1676    6.2404 H   0  0  0  0  0  0  0  0  0  0  0  0
    2.2041    0.5350   -3.5296 O   0  0  0  0  0  0  0  0  0  0  0  0
    2.3865    0.4247   -4.4677 H   0  0  0  0  0  0  0  0  0  0  0  0
    1.6145   -0.2014   -3.2835 H   0  0  0  0  0  0  0  0  0  0  0  0
    2.0864   -2.8861    1.0503 O   0  0  0  0  0  0  0  0  0  0  0  0
    1.2815   -2.8464    0.5137 H   0  0  0  0  0  0  0  0  0  0  0  0
    1.8014   -2.8536    1.9745 H   0  0  0  0  0  0  0  0  0  0  0  0
    0.8761   -1.9545    3.6886 O   0  0  0  0  0  0  0  0  0  0  0  0
    0.9551   -1.2371    4.3455 H   0  0  0  0  0  0  0  0  0  0  0  0
    0.0928   -2.4576    3.9306 H   0  0  0  0  0  0  0  0  0  0  0  0
  1  2  1  0  0  0  0
  2  3  1  0  0  0  0
  3  4  1  0  0  0  0
  4  5  1  0  0  0  0
  5  6  4  0  0  0  0
  5  7  4  0  0  0  0
  1  8  1  0  0  0  0
  1  9  1  0  0  0  0
  2 10  1  0  0  0  0
  2 11  1  0  0  0  0
  3 12  1  0  0  0  0
  3 13  1  0  0  0  0
  4 14  1  0  0  0  0
  4 15  1  0  0  0  0
  1 16  1  0  0  0  0
 17 18  1  0  0  0  0
 17 19  1  0  0  0  0
 20 21  1  0  0  0  0
 20 22  1  0  0  0  0
 23 24  1  0  0  0  0
 23 25  1  0  0  0  0
 26 27  1  0  0  0  0
 26 28  1  0  0  0  0
 29 30  1  0  0  0  0
 29 31  1  0  0  0  0
 32 33  1  0  0  0  0
 32 34  1  0  0  0  0
 35 36  1  0  0  0  0
 35 37  1  0  0  0  0
M  END
