          34
  Built with Packmol                                             
  H            1.420531       -0.693439       -0.457594
  C            0.315625       -0.640915       -0.572756
  H            0.379447        0.341256       -2.375102
  H           -0.020204       -1.577267       -1.069783
  N           -0.042833        0.489322       -1.430827
  H           -0.104344       -1.525775        1.342275
  C           -0.356072       -0.581772        0.809877
  O           -0.155039        1.845644        1.277794
  C            0.099005        0.578296        1.654298
  H            0.334594        1.383914       -1.050468
  O            0.669992        0.373338        2.712012
  H           -1.081518        0.548347       -1.533033
  H           -1.459185       -0.540948        0.693308
  O            3.318392        0.775717        1.708336
  H            3.884707        0.116601        1.233503
  H            3.881813        1.091920        2.458792
  O            3.260544       -1.731623        0.189025
  H            3.474468       -2.522841        0.744742
  H            4.118102       -1.494628       -0.245764
  O            2.677489        2.977972        1.512299
  H            2.409619        3.917247        1.349148
  H            2.039091        2.441560        0.978142
  O            3.379649       -0.903161        3.905452
  H            2.611230       -0.372843        3.575441
  H            3.973701       -0.995346        3.118549
  O            2.697601       -2.761662        2.818506
  H            2.736012       -3.746150        2.918095
  H            1.926529       -2.485871        3.375283
  O            2.386185        2.505341       -3.238417
  H            3.229629        1.988081       -3.197721
  H            1.836913        2.142883       -2.498459
  O            3.396351        3.107542       -0.746417
  H            2.496607        3.490007       -0.903872
  H            3.265883        2.128567       -0.818523
