 xtb: 6.7.1 (edcfbbe)
          06092517593D

 34 26  0     0  0            999 V2000
    1.7828   -0.0305    0.0123 H   0  0  0  0  0  0  0  0  0  0  0  0
    0.7448   -0.2744   -0.2110 C   0  0  0  0  0  0  0  0  0  0  0  0
    0.8702    1.1275   -1.7777 H   0  0  0  0  0  0  0  0  0  0  0  0
    0.7196   -1.2248   -0.7423 H   0  0  0  0  0  0  0  0  0  0  0  0
    0.1792    0.8034   -1.0451 N   0  0  0  0  0  0  0  0  0  0  0  0
    0.3383   -1.2135    1.6955 H   0  0  0  0  0  0  0  0  0  0  0  0
   -0.0325   -0.3831    1.0984 C   0  0  0  0  0  0  0  0  0  0  0  0
   -0.1686    1.9930    1.3230 O   0  0  0  0  0  0  0  0  0  0  0  0
    0.0928    0.9151    1.9224 C   0  0  0  0  0  0  0  0  0  0  0  0
   -0.0187    1.5811   -0.3750 H   0  0  0  0  0  0  0  0  0  0  0  0
    0.4468    0.8382    3.1139 O   0  0  0  0  0  0  0  0  0  0  0  0
   -0.6954    0.5191   -1.4854 H   0  0  0  0  0  0  0  0  0  0  0  0
   -1.0949   -0.5443    0.9041 H   0  0  0  0  0  0  0  0  0  0  0  0
    4.1436    0.1495    1.0341 O   0  0  0  0  0  0  0  0  0  0  0  0
    3.9245   -0.6793    0.5473 H   0  0  0  0  0  0  0  0  0  0  0  0
    5.0946    0.1303    1.1774 H   0  0  0  0  0  0  0  0  0  0  0  0
    3.4240   -2.1860   -0.1352 O   0  0  0  0  0  0  0  0  0  0  0  0
    2.9122   -2.5534    0.6133 H   0  0  0  0  0  0  0  0  0  0  0  0
    4.0232   -2.8792   -0.4264 H   0  0  0  0  0  0  0  0  0  0  0  0
    1.6950    3.9472    0.9178 O   0  0  0  0  0  0  0  0  0  0  0  0
    1.2264    4.7169    0.5802 H   0  0  0  0  0  0  0  0  0  0  0  0
    1.0082    3.3157    1.2072 H   0  0  0  0  0  0  0  0  0  0  0  0
    2.7386   -0.6726    3.3086 O   0  0  0  0  0  0  0  0  0  0  0  0
    1.9289   -0.1351    3.3900 H   0  0  0  0  0  0  0  0  0  0  0  0
    3.2538   -0.2564    2.5881 H   0  0  0  0  0  0  0  0  0  0  0  0
    2.1597   -3.0351    2.1403 O   0  0  0  0  0  0  0  0  0  0  0  0
    2.4623   -3.7623    2.6910 H   0  0  0  0  0  0  0  0  0  0  0  0
    2.3481   -2.2128    2.6488 H   0  0  0  0  0  0  0  0  0  0  0  0
    2.0933    1.6457   -2.7318 O   0  0  0  0  0  0  0  0  0  0  0  0
    2.6247    1.0175   -3.2289 H   0  0  0  0  0  0  0  0  0  0  0  0
    2.6725    2.0006   -2.0204 H   0  0  0  0  0  0  0  0  0  0  0  0
    3.4723    2.3828   -0.5412 O   0  0  0  0  0  0  0  0  0  0  0  0
    2.9345    2.9906   -0.0029 H   0  0  0  0  0  0  0  0  0  0  0  0
    3.6957    1.6379    0.0458 H   0  0  0  0  0  0  0  0  0  0  0  0
  1  2  1  0  0  0  0
  2  4  1  0  0  0  0
  2  5  1  0  0  0  0
  3  5  1  0  0  0  0
  2  7  1  0  0  0  0
  6  7  1  0  0  0  0
  7  9  1  0  0  0  0
  8  9  4  0  0  0  0
  5 10  1  0  0  0  0
  9 11  2  0  0  0  0
  5 12  1  0  0  0  0
  7 13  1  0  0  0  0
 14 15  1  0  0  0  0
 14 16  1  0  0  0  0
 17 18  1  0  0  0  0
 17 19  1  0  0  0  0
 20 21  1  0  0  0  0
 20 22  1  0  0  0  0
 23 24  1  0  0  0  0
 23 25  1  0  0  0  0
 26 27  1  0  0  0  0
 26 28  1  0  0  0  0
 29 30  1  0  0  0  0
 29 31  1  0  0  0  0
 32 33  1  0  0  0  0
 32 34  1  0  0  0  0
M  END
