          34
  Built with Packmol                                             
  H            1.511317       -0.306828       -0.555014
  C            0.423564       -0.532721       -0.609717
  H            0.153518        0.482840       -2.377127
  H            0.306225       -1.519929       -1.108019
  N           -0.266872        0.473091       -1.420552
  H            0.312435       -1.513062        1.312585
  C           -0.165166       -0.646649        0.806799
  O            0.750464        1.631323        1.241066
  C            0.056943        0.562514        1.678499
  H           -0.170369        1.427689       -1.011410
  O           -0.378051        0.562370        2.818531
  H           -1.279945        0.228297       -1.503809
  H           -1.254063       -0.848936        0.728169
  O            1.113097       -3.744114       -1.637497
  H            0.453375       -3.718438       -0.899447
  H            1.816555       -3.103105       -1.363876
  O            3.435706       -0.596143       -2.793972
  H            3.297871       -1.357231       -2.175621
  H            2.594496       -0.543305       -3.313767
  O           -3.193968       -2.540656        3.614845
  H           -3.558272       -1.882458        2.970897
  H           -3.186919       -2.061949        4.481681
  O           -1.481210       -2.711583       -2.051798
  H           -2.166689       -3.240389       -1.571074
  H           -1.149564       -3.319997       -2.759228
  O           -0.615758       -1.724238        4.674832
  H           -1.164811       -1.117077        5.232063
  H           -1.092327       -1.764016        3.807702
  O           -1.187003       -3.100256        1.289902
  H           -2.119696       -2.960569        1.591864
  H           -1.199000       -3.987104        0.849482
  O            1.551250       -2.712730        3.619957
  H            2.114757       -1.898642        3.638144
  H            1.632743       -3.050209        2.692551
