          34
  Built with Packmol                                             
  H            1.420531       -0.693439       -0.457594
  C            0.315625       -0.640915       -0.572756
  H            0.379447        0.341256       -2.375102
  H           -0.020204       -1.577267       -1.069783
  N           -0.042833        0.489322       -1.430827
  H           -0.104344       -1.525775        1.342275
  C           -0.356072       -0.581772        0.809877
  O           -0.155039        1.845644        1.277794
  C            0.099005        0.578296        1.654298
  H            0.334594        1.383914       -1.050468
  O            0.669992        0.373338        2.712012
  H           -1.081518        0.548347       -1.533033
  H           -1.459185       -0.540948        0.693308
  O           -1.140988       -1.729159        6.076191
  H           -0.994687       -2.686532        5.869685
  H           -1.229337       -1.295011        5.190571
  O            1.335101       -4.101187        1.878033
  H            0.431220       -4.438796        1.655254
  H            1.175444       -3.384415        2.542383
  O           -3.219843       -1.560266        2.864874
  H           -2.386810       -1.676155        2.342154
  H           -2.922558       -1.563868        3.809449
  O           -2.963489       -3.777299        1.991397
  H           -2.984401       -3.805705        2.981027
  H           -2.009713       -3.908307        1.759534
  O            2.753592       -1.617765        3.465644
  H            2.785283       -1.092447        4.304481
  H            2.815506       -2.560904        3.761057
  O           -0.513733       -3.626817        3.931490
  H           -1.110015       -2.881649        3.667325
  H           -0.990552       -4.442845        3.635929
  O            0.963630       -1.968515        5.172435
  H            0.697093       -1.768026        4.240033
  H            1.168156       -2.937417        5.169125
