 xtb: 6.7.1 (edcfbbe)
          06092517593D

 34 26  0     0  0            999 V2000
    1.7159   -0.7969    0.5929 H   0  0  0  0  0  0  0  0  0  0  0  0
    0.7606   -0.8999    0.0745 C   0  0  0  0  0  0  0  0  0  0  0  0
    1.3814    0.5446   -1.3074 H   0  0  0  0  0  0  0  0  0  0  0  0
    0.7693   -1.8141   -0.5188 H   0  0  0  0  0  0  0  0  0  0  0  0
    0.5434    0.2860   -0.7853 N   0  0  0  0  0  0  0  0  0  0  0  0
   -0.1819   -1.8336    1.7563 H   0  0  0  0  0  0  0  0  0  0  0  0
   -0.3508   -0.9763    1.1112 C   0  0  0  0  0  0  0  0  0  0  0  0
   -0.2560    1.4014    1.4344 O   0  0  0  0  0  0  0  0  0  0  0  0
   -0.4482    0.2896    1.9777 C   0  0  0  0  0  0  0  0  0  0  0  0
    0.2745    1.0419   -0.0858 H   0  0  0  0  0  0  0  0  0  0  0  0
   -0.7424    0.1379    3.1894 O   0  0  0  0  0  0  0  0  0  0  0  0
   -0.2422    0.1348   -1.4220 H   0  0  0  0  0  0  0  0  0  0  0  0
   -1.3263   -1.1085    0.6367 H   0  0  0  0  0  0  0  0  0  0  0  0
   -1.0065   -1.9163    6.3635 O   0  0  0  0  0  0  0  0  0  0  0  0
   -1.0763   -1.1592    6.9505 H   0  0  0  0  0  0  0  0  0  0  0  0
   -0.1735   -1.8016    5.8663 H   0  0  0  0  0  0  0  0  0  0  0  0
   -0.8831   -4.2455    0.6522 O   0  0  0  0  0  0  0  0  0  0  0  0
   -0.8977   -5.1830    0.4410 H   0  0  0  0  0  0  0  0  0  0  0  0
   -0.5681   -4.1708    1.5724 H   0  0  0  0  0  0  0  0  0  0  0  0
   -2.2566   -2.0441    3.8818 O   0  0  0  0  0  0  0  0  0  0  0  0
   -1.8198   -1.2135    3.5989 H   0  0  0  0  0  0  0  0  0  0  0  0
   -2.1114   -2.0666    4.8465 H   0  0  0  0  0  0  0  0  0  0  0  0
   -3.1802   -2.6684    1.0706 O   0  0  0  0  0  0  0  0  0  0  0  0
   -3.1042   -2.5115    2.0205 H   0  0  0  0  0  0  0  0  0  0  0  0
   -2.4342   -3.2569    0.8446 H   0  0  0  0  0  0  0  0  0  0  0  0
    3.0053   -1.1874    2.4687 O   0  0  0  0  0  0  0  0  0  0  0  0
    2.4069   -1.2768    3.2315 H   0  0  0  0  0  0  0  0  0  0  0  0
    3.7169   -1.8185    2.6139 H   0  0  0  0  0  0  0  0  0  0  0  0
   -0.3471   -3.8437    3.3517 O   0  0  0  0  0  0  0  0  0  0  0  0
   -1.1326   -3.2622    3.5062 H   0  0  0  0  0  0  0  0  0  0  0  0
   -0.4345   -4.5743    3.9710 H   0  0  0  0  0  0  0  0  0  0  0  0
    0.9838   -1.6280    4.3938 O   0  0  0  0  0  0  0  0  0  0  0  0
    0.4034   -0.9363    4.0174 H   0  0  0  0  0  0  0  0  0  0  0  0
    0.6710   -2.4649    3.9912 H   0  0  0  0  0  0  0  0  0  0  0  0
  1  2  1  0  0  0  0
  2  4  1  0  0  0  0
  2  5  1  0  0  0  0
  3  5  1  0  0  0  0
  2  7  1  0  0  0  0
  6  7  1  0  0  0  0
  7  9  1  0  0  0  0
  8  9  4  0  0  0  0
  5 10  1  0  0  0  0
  9 11  4  0  0  0  0
  5 12  1  0  0  0  0
  7 13  1  0  0  0  0
 14 15  1  0  0  0  0
 14 16  1  0  0  0  0
 17 18  1  0  0  0  0
 17 19  1  0  0  0  0
 20 21  1  0  0  0  0
 20 22  1  0  0  0  0
 23 24  1  0  0  0  0
 23 25  1  0  0  0  0
 26 27  1  0  0  0  0
 26 28  1  0  0  0  0
 29 30  1  0  0  0  0
 29 31  1  0  0  0  0
 32 33  1  0  0  0  0
 32 34  1  0  0  0  0
M  END
