58
Coordinates from ORCA-job 02_Aminobutyric-acid_zwitterion
  N           1.24638391055614     -0.21088901874035      0.46713805411481
  C           2.01119355097207     -0.42035918156532     -0.79933340515278
  C           1.60615239346358      0.58286642363280     -1.86599110418143
  C           2.49305459022125      0.46732455834171     -3.10877188790275
  C           3.89551149195665      1.02208649249451     -2.90149186342157
  O           3.99572369606079      2.20071516117564     -2.46852329168956
  O           4.89304223088996      0.29441598717656     -3.18578201702422
  H           1.59642103739283      0.60441824161595      0.99553782731592
  H           0.23898038679925     -0.06947641518158      0.27964458359932
  H           1.81447533623832     -1.43896804274360     -1.13082511480129
  H           3.06690882512400     -0.34497790394611     -0.54660889153337
  H           1.66292831074369      1.59715939069559     -1.46566774361801
  H           0.56695290974343      0.40046690473305     -2.14704312737488
  H           2.54693792774618     -0.56525323223428     -3.45079305798837
  H           2.05024096597690      1.05606067481091     -3.91593933174453
  H           1.36680639536030     -1.01783916244733      1.09348377138231
  O           4.37048349519685      2.54077140488877      0.28859387761449
  H           5.52519221103877      3.18604251666272     -2.74892908291451
  O           6.42662001047159      3.52872932515754     -2.94211814149243
  H           3.56092557572985      2.43549087320533      0.81721868291304
  O           1.94824593543164      4.02950920239322     -2.98868268448999
  H           2.65873354117566      3.37706910638422     -2.80939797615590
  H           4.11368034092499      2.43975556255792     -0.64883414451832
  O           2.46116834215075      1.70450617140396      2.25910676075608
  H          -1.51093647822807      0.72606060263821      1.90817559234322
  H           6.97741731382494      2.87750245521607     -2.47443756527553
  H           1.90172934734689      2.08486732401643      2.94841195941137
  O          -1.38505824391166      0.84785919290440      2.86524094636286
  H           1.39003186875467      3.61080774874835     -3.65731406522249
  H          -0.69529030217888      1.51898372220551      2.93716130775338
  H           3.17074904899041      1.24532318138904      2.72780506604109
  O          -1.58086291576984      0.30333137483447      0.04378711859098
  H          -2.17651566849771     -0.41877498140354     -0.18505561324065
  H          -1.78879452138779      1.01894587065542     -0.57299789064429
  O           3.65272953259626      2.34460822334841     -6.41255338448306
  H           3.20471749337306      1.52382577654297     -6.19957799622092
  H           5.40918863283882      1.06713358190831      0.51896676875739
  H           4.54949071918010      2.24754535721918     -6.02828893835965
  H           0.23002055553652     -2.78111378974736      2.63756716038599
  O          -0.70462185610504     -3.02389589606172      2.79792240818994
  H           2.52935570693356     -1.95517185238714      3.03901133855304
  O           6.06111518902894      0.33317284416846      0.54324947846818
  H           4.07149193229819     -1.30934389557002     -5.81979779045633
  H          -0.96873511341911     -3.50282584940470      2.00021623358936
  O           2.01093444127552     -2.30403119969793      2.29728256578131
  O           6.18367372969658      1.92904083829703     -5.26222552794210
  H           6.36186042702790      2.61945543699577     -4.59139260137173
  H           5.64382518411666     -0.40633647532174      0.05934751866102
  H           7.05603698464374      0.87685129904013     -0.94366754575324
  O           4.67885029258854     -1.68135387318963     -5.16847506203767
  H           2.56089983244535     -2.98711480949200      1.87999922085155
  H           4.72521059078502     -1.00801049150155     -4.46032328224818
  H           5.89644986267919      1.17865441839571     -4.71431081060997
  O           7.34060149798141      1.07810349961201     -1.85955164826400
  H           6.57924408893248      0.77236396988708     -2.39391147959696
  O           5.31602879310012     -1.74934163435146     -1.24613301978553
  H           5.09261622674965     -1.17231344268070     -2.00235143315171
  H           4.56053239540713     -2.34059356768550     -1.14526972076835
