 xtb: 6.7.1 (edcfbbe)
          06102511213D

 25 20  0     0  0            999 V2000
   -1.5077   -0.7158   -1.3040 H   0  0  0  0  0  0  0  0  0  0  0  0
   -1.0860   -0.2481   -2.1951 C   0  0  0  0  0  0  0  0  0  0  0  0
    0.6991   -1.3077   -1.8845 H   0  0  0  0  0  0  0  0  0  0  0  0
   -1.4687   -0.7542   -3.0818 H   0  0  0  0  0  0  0  0  0  0  0  0
    0.3835   -0.3561   -2.1439 N   0  0  0  0  0  0  0  0  0  0  0  0
   -2.5645    1.3430   -2.2735 H   0  0  0  0  0  0  0  0  0  0  0  0
   -1.4831    1.2246   -2.2244 C   0  0  0  0  0  0  0  0  0  0  0  0
    0.1240    1.6900   -0.4973 O   0  0  0  0  0  0  0  0  0  0  0  0
   -0.9850    2.0056   -0.9842 C   0  0  0  0  0  0  0  0  0  0  0  0
    0.6661    0.3400   -1.4125 H   0  0  0  0  0  0  0  0  0  0  0  0
   -1.7203    2.9223   -0.5587 O   0  0  0  0  0  0  0  0  0  0  0  0
    0.8043   -0.0771   -3.0516 H   0  0  0  0  0  0  0  0  0  0  0  0
   -1.0484    1.7139   -3.0987 H   0  0  0  0  0  0  0  0  0  0  0  0
    1.2814    4.2434    3.0853 O   0  0  0  0  0  0  0  0  0  0  0  0
    1.5941    3.3497    2.9128 H   0  0  0  0  0  0  0  0  0  0  0  0
    0.4321    4.3159    2.6166 H   0  0  0  0  0  0  0  0  0  0  0  0
   -1.1715    4.3522    1.6815 O   0  0  0  0  0  0  0  0  0  0  0  0
   -1.3233    3.7951    0.8841 H   0  0  0  0  0  0  0  0  0  0  0  0
   -1.6768    5.1575    1.5332 H   0  0  0  0  0  0  0  0  0  0  0  0
    1.1721   -2.9103   -1.3285 O   0  0  0  0  0  0  0  0  0  0  0  0
    1.4788   -3.0312   -0.4258 H   0  0  0  0  0  0  0  0  0  0  0  0
    0.8687   -3.7626   -1.6542 H   0  0  0  0  0  0  0  0  0  0  0  0
    1.4331    0.3955   -4.6203 O   0  0  0  0  0  0  0  0  0  0  0  0
    1.6747   -0.2898   -5.2521 H   0  0  0  0  0  0  0  0  0  0  0  0
    2.1201    1.0674   -4.6451 H   0  0  0  0  0  0  0  0  0  0  0  0
  1  2  1  0  0  0  0
  2  4  1  0  0  0  0
  2  5  1  0  0  0  0
  3  5  1  0  0  0  0
  2  7  1  0  0  0  0
  6  7  1  0  0  0  0
  7  9  1  0  0  0  0
  8  9  4  0  0  0  0
  5 10  1  0  0  0  0
  9 11  4  0  0  0  0
  5 12  1  0  0  0  0
  7 13  1  0  0  0  0
 14 15  1  0  0  0  0
 14 16  1  0  0  0  0
 17 18  1  0  0  0  0
 17 19  1  0  0  0  0
 20 21  1  0  0  0  0
 20 22  1  0  0  0  0
 23 24  1  0  0  0  0
 23 25  1  0  0  0  0
M  END
