52

N        0.7479396620      0.0244914023     -0.3369421096                 
C        2.1746717608     -0.1610381186     -0.0275690010                 
C        3.0104230428      0.6483574606     -1.0171337323                 
C        4.4259071300      0.9177966976     -0.5064854868                 
C        5.1462608294      1.8699371595     -1.4596562487                 
O        4.7192419235      3.0386666129     -1.5686827138                 
O        6.1333935436      1.4265053490     -2.1108789035                 
H        0.5052105217      1.0302179967     -0.2171995492                 
H        0.5543715129     -0.2429030385     -1.3181688268                 
H        2.4372133251     -1.2159469944     -0.0924609568                 
H        2.3716096438      0.1786698684      0.9904209379                 
H        2.5333900959      1.6136531048     -1.1855786190                 
H        3.0801517474      0.1318233431     -1.9757884317                 
H        5.0022835215     -0.0036537949     -0.4243493155                 
H        4.3836519511      1.4031642920      0.4705610675                 
H        0.1132985502     -0.5192601843      0.2877737762                 
O        0.1986880746      2.7309715312      0.1108046886                 
H        0.4899095012      3.0104643503      0.9839623115                 
H        0.7543408210      3.2165605184     -0.5228792835                 
O        2.0970736717      3.9822347648     -1.4949924891                 
H        3.0323965445      3.7150837500     -1.4501697249                 
H        2.0491314931      4.6585923109     -2.1756362636                 
H       -1.9031106521     -1.7073819656      0.7478506561                 
O       -1.3496960839     -1.0032188938      1.0952605525                 
H       -1.8215571267     -0.1653643850      0.9266604208                 
O        7.5641159589      3.0047875720     -3.8645064507                 
H        8.3999247886      3.1997154050     -3.4288222571                 
H        7.0548729940      2.4486642646     -3.2375869293                 
H        0.3882090759     -1.5265517219     -3.4042005674                 
O        0.2119361072     -0.6637026455     -3.0204998201                 
H        0.3419819715     -0.0057813917     -3.7077329879                 
H        6.1551121191      4.3561317998     -4.0022247299                 
O        5.3740915259      4.7983992542     -3.6335813815                 
H        5.1339335670      4.2410498092     -2.8683805932                 
H       -1.5563341606      2.0177493824      0.1513297809                 
O       -2.3318538143      1.4361702231      0.2040876311                 
H       -2.8383459425      1.5846529856     -0.5988907187                 
H        8.3371938872     -0.8281228891     -1.3854489747                 
O        7.6072286947     -0.5649841090     -0.8160925006                 
H        7.1346325310      0.1438269470     -1.2895363737                 
H        2.2282712531      0.0982311867      3.9443583409                 
O        2.9284161849      0.1223851908      3.2837204189                 
H        3.6362887928     -0.4391173566      3.6094966034                 
H        5.3255921996      0.1253526593     -3.2585025694                 
O        4.8109466146     -0.5202743062     -3.7642673617                 
H        5.3450114442     -0.7492922324     -4.5309747764                 
H       -2.1298206007      0.1349530171     -2.1876609451                 
O       -1.6536078263     -0.6648682180     -1.9493133098                 
H       -2.3046335514     -1.3849967294     -1.9574301038                 
H        5.5685366146      3.5893067470      0.2846669572                 
O        6.1977666542      3.8814077978      0.9496387937                 
H        5.9531927320      3.4329696559      1.7751673816                 

