 xtb: 6.7.1 (edcfbbe)
          06112501203D

 52 39  0     0  0            999 V2000
    0.9901    0.1701   -0.4108 N   0  0  0  0  0  0  0  0  0  0  0  0
    2.3733   -0.1477   -0.0295 C   0  0  0  0  0  0  0  0  0  0  0  0
    3.3140    0.7924   -0.7783 C   0  0  0  0  0  0  0  0  0  0  0  0
    4.7157    0.8436   -0.1658 C   0  0  0  0  0  0  0  0  0  0  0  0
    5.5112    1.9091   -0.9118 C   0  0  0  0  0  0  0  0  0  0  0  0
    5.3758    3.1064   -0.5502 O   0  0  0  0  0  0  0  0  0  0  0  0
    6.2232    1.5597   -1.8838 O   0  0  0  0  0  0  0  0  0  0  0  0
    0.7763    1.1493   -0.1420 H   0  0  0  0  0  0  0  0  0  0  0  0
    0.8785    0.0830   -1.4399 H   0  0  0  0  0  0  0  0  0  0  0  0
    2.5991   -1.1825   -0.2830 H   0  0  0  0  0  0  0  0  0  0  0  0
    2.4990   -0.0218    1.0465 H   0  0  0  0  0  0  0  0  0  0  0  0
    2.9026    1.8012   -0.7516 H   0  0  0  0  0  0  0  0  0  0  0  0
    3.4003    0.4878   -1.8220 H   0  0  0  0  0  0  0  0  0  0  0  0
    5.2170   -0.1193   -0.2633 H   0  0  0  0  0  0  0  0  0  0  0  0
    4.6591    1.1233    0.8870 H   0  0  0  0  0  0  0  0  0  0  0  0
    0.2682   -0.4474    0.0400 H   0  0  0  0  0  0  0  0  0  0  0  0
    0.5247    2.8514    0.3461 O   0  0  0  0  0  0  0  0  0  0  0  0
    0.7137    3.0090    1.2757 H   0  0  0  0  0  0  0  0  0  0  0  0
    1.1676    3.3850   -0.1489 H   0  0  0  0  0  0  0  0  0  0  0  0
    2.7323    4.1651   -0.8407 O   0  0  0  0  0  0  0  0  0  0  0  0
    3.6188    3.8422   -0.6152 H   0  0  0  0  0  0  0  0  0  0  0  0
    2.8756    4.8135   -1.5377 H   0  0  0  0  0  0  0  0  0  0  0  0
   -1.4030   -1.5110   -0.5246 H   0  0  0  0  0  0  0  0  0  0  0  0
   -1.2420   -1.1375    0.3632 O   0  0  0  0  0  0  0  0  0  0  0  0
   -1.7285   -0.2962    0.3863 H   0  0  0  0  0  0  0  0  0  0  0  0
    6.7879    3.2688   -3.9645 O   0  0  0  0  0  0  0  0  0  0  0  0
    7.7449    3.2915   -4.0605 H   0  0  0  0  0  0  0  0  0  0  0  0
    6.6084    2.6529   -3.2238 H   0  0  0  0  0  0  0  0  0  0  0  0
    1.5687   -0.3915   -3.5581 H   0  0  0  0  0  0  0  0  0  0  0  0
    0.7116   -0.1255   -3.1809 O   0  0  0  0  0  0  0  0  0  0  0  0
    0.4287    0.6522   -3.6706 H   0  0  0  0  0  0  0  0  0  0  0  0
    5.6854    4.7197   -3.2237 H   0  0  0  0  0  0  0  0  0  0  0  0
    5.2368    5.1342   -2.4702 O   0  0  0  0  0  0  0  0  0  0  0  0
    5.4082    4.5216   -1.7318 H   0  0  0  0  0  0  0  0  0  0  0  0
   -1.2609    2.1227    0.1497 H   0  0  0  0  0  0  0  0  0  0  0  0
   -2.0429    1.5560    0.0646 O   0  0  0  0  0  0  0  0  0  0  0  0
   -2.6043    1.9591   -0.6022 H   0  0  0  0  0  0  0  0  0  0  0  0
    6.4516   -1.2640   -3.3088 H   0  0  0  0  0  0  0  0  0  0  0  0
    5.6361   -0.8885   -2.9648 O   0  0  0  0  0  0  0  0  0  0  0  0
    5.8744   -0.0213   -2.5778 H   0  0  0  0  0  0  0  0  0  0  0  0
    2.9838    0.1531    4.0593 H   0  0  0  0  0  0  0  0  0  0  0  0
    2.8224   -0.4031    3.2923 O   0  0  0  0  0  0  0  0  0  0  0  0
    2.5174   -1.2546    3.6206 H   0  0  0  0  0  0  0  0  0  0  0  0
    3.5058   -0.1476   -5.0913 H   0  0  0  0  0  0  0  0  0  0  0  0
    3.2096   -0.5773   -4.2841 O   0  0  0  0  0  0  0  0  0  0  0  0
    4.0156   -0.7944   -3.7834 H   0  0  0  0  0  0  0  0  0  0  0  0
   -0.5573   -1.3665   -2.6732 H   0  0  0  0  0  0  0  0  0  0  0  0
   -1.1810   -2.0002   -2.2744 O   0  0  0  0  0  0  0  0  0  0  0  0
   -0.8404   -2.8754   -2.4761 H   0  0  0  0  0  0  0  0  0  0  0  0
    5.3785    3.4788    1.2248 H   0  0  0  0  0  0  0  0  0  0  0  0
    5.3258    3.6323    2.1848 O   0  0  0  0  0  0  0  0  0  0  0  0
    5.3914    4.5848    2.3040 H   0  0  0  0  0  0  0  0  0  0  0  0
  1  2  1  0  0  0  0
  2  3  1  0  0  0  0
  3  4  1  0  0  0  0
  4  5  1  0  0  0  0
  5  6  4  0  0  0  0
  5  7  4  0  0  0  0
  1  8  1  0  0  0  0
  1  9  1  0  0  0  0
  2 10  1  0  0  0  0
  2 11  1  0  0  0  0
  3 12  1  0  0  0  0
  3 13  1  0  0  0  0
  4 14  1  0  0  0  0
  4 15  1  0  0  0  0
  1 16  1  0  0  0  0
 17 18  1  0  0  0  0
 17 19  1  0  0  0  0
 20 21  1  0  0  0  0
 20 22  1  0  0  0  0
 23 24  1  0  0  0  0
 24 25  1  0  0  0  0
 26 27  1  0  0  0  0
 26 28  1  0  0  0  0
 29 30  1  0  0  0  0
 30 31  1  0  0  0  0
 32 33  1  0  0  0  0
 33 34  1  0  0  0  0
 35 36  1  0  0  0  0
 36 37  1  0  0  0  0
 38 39  1  0  0  0  0
 39 40  1  0  0  0  0
 41 42  1  0  0  0  0
 42 43  1  0  0  0  0
 44 45  1  0  0  0  0
 45 46  1  0  0  0  0
 47 48  1  0  0  0  0
 48 49  1  0  0  0  0
 50 51  1  0  0  0  0
 51 52  1  0  0  0  0
M  END
