          37
  Built with Packmol                                             
  N            0.064952       -0.170366        2.240690
  C           -0.425087       -0.283877        0.868279
  C            0.367730        0.641149       -0.071166
  C           -0.134429        0.597594       -1.523145
  C            0.096668       -0.713488       -2.230733
  O            0.727246       -1.739965       -1.628533
  O           -0.270635       -0.838959       -3.387000
  H            1.072330       -0.447205        2.286531
  H           -0.048728        0.810713        2.583748
  H           -1.501047       -0.002735        0.840683
  H           -0.338388       -1.340879        0.545678
  H            1.449826        0.389794       -0.041707
  H            0.245710        1.683089        0.295720
  H           -1.217927        0.840241       -1.535888
  H            0.400055        1.383318       -2.098747
  H           -0.488277       -0.808425        2.855591
  O           -2.026267       -2.945197        5.411905
  H           -1.326374       -2.285256        5.646931
  H           -2.239044       -2.754179        4.463827
  O           -0.066840       -2.864079        3.940641
  H            0.897432       -2.940638        3.728678
  H           -0.351443       -3.791387        4.139928
  O           -2.162254       -3.086316        0.011779
  H           -3.041327       -2.630908        0.032870
  H           -2.288213       -3.839749       -0.618369
  O            2.392340       -3.420905        1.715947
  H            2.026611       -4.153170        2.273298
  H            1.645954       -2.775365        1.633501
  O            1.630295       -2.512251        5.933663
  H            2.305749       -3.060914        5.461073
  H            1.669229       -1.630233        5.485176
  O           -1.607214       -3.372994        2.412998
  H           -2.528681       -3.060540        2.228932
  H           -1.482522       -4.147537        1.808723
  O           -0.103771       -4.335948       -0.039112
  H            0.031529       -3.364502       -0.175488
  H            0.443057       -4.553197        0.757377
