52

N       -0.3284994058      1.0817985950     -0.3940111316                 
C        0.6037696641      2.1392165343     -0.8055180021                 
C        0.3389564258      2.5855162188     -2.2436656323                 
C        0.8700964020      1.6281685758     -3.3238586366                 
C       -0.0364638431      0.4422480648     -3.6497871471                 
O       -0.3887130876      0.2656111147     -4.8379427193                 
O       -0.3906016101     -0.3227390604     -2.7183300290                 
H       -0.0694930821      0.6641772152      0.5443430108                 
H       -1.3004758029      1.4451130976     -0.3799397612                 
H        0.4830740333      2.9931255529     -0.1386935931                 
H        1.6251550450      1.7672365263     -0.7120548001                 
H        0.8298274224      3.5465862665     -2.3973552825                 
H       -0.7335132520      2.7374265233     -2.3800334480                 
H        1.8345268440      1.2182388315     -3.0130477406                 
H        1.0180480128      2.1685720956     -4.2607135512                 
H       -0.3039124797      0.3363678189     -1.1151421490                 
O        0.4058907740     -0.1302686993      1.8763280865                 
H        1.0008493308     -0.8122074025      1.5057488979                 
H       -0.3857902641     -0.6198706077      2.1745513343                 
O       -3.0600614259     -0.5200319997     -2.1860675613                 
H       -3.4710552078     -0.6247436750     -3.0549572695                 
H       -2.1001169837     -0.5299090897     -2.3763395225                 
O       -3.0972725570     -0.4458737642     -5.0408356748                 
H       -3.5385300196      0.0608718906     -5.7283151867                 
H       -2.1732471462     -0.1347821019     -5.0249711171                 
O       -2.9530371072      1.8906968340     -0.8560306456                 
H       -3.1482538546      1.0661723535     -1.3433774303                 
H       -3.6661791465      2.0145823596     -0.2241295531                 
H       -0.0986087593     -1.8923555159     -1.9051261114                 
H        0.1063803018     -3.4106886035     -2.0589083412                 
O       -0.0100632601     -2.7122910141     -1.3899356332                 
H        1.1818581859     -2.3608969861     -0.1132835944                 
H        1.9309866494     -2.9573314777      1.1030539480                 
O        1.7968068033     -2.1406760496      0.6151199962                 
O        0.3060235813     -4.2617844956     -3.6479945936                 
H        1.1234452593     -4.5786549414     -4.0422551983                 
H       -0.1011146524     -3.6644933621     -4.3056223971                 
O       -1.8853677790     -1.5607578086      2.3691267682                 
H       -2.7095966192     -1.2791026137      2.7733062330                 
H       -2.1199239544     -1.9176773377      1.4848388677                 
H       -1.6080385614     -2.6475211730     -0.5343667865                 
O       -2.4732146973     -2.4070279231     -0.1508308558                 
H       -2.8590639867     -1.7820283968     -0.7871848367                 
H       -1.7591789872     -2.4376926097     -5.4709758658                 
O       -0.7956421667     -2.4482491535     -5.4228008696                 
H       -0.5437739225     -1.5197139174     -5.2607952664                 
O       -1.9129267517     -2.0284228380     -3.5282752676                 
H       -2.6148547110     -2.0815441853     -4.1829776368                 
H       -1.5339195974     -1.1335058211     -3.6087163634                 
O       -1.7436414350      2.2340746703      1.0059381544                 
H       -1.3828771813      1.9089361073      1.8356307289                 
H       -2.5199627259      2.7753439366      1.2411061897                 
