          37
  Built with Packmol                                             
  N            0.002605        0.268339        2.349498
  C            0.005610       -0.534268        1.127824
  C           -0.013605        0.360442       -0.117570
  C           -0.006580       -0.484114       -1.399583
  C            0.005309        0.346063       -2.655593
  O            0.015980        1.566588       -2.611145
  O            0.010136       -0.270580       -3.851920
  H            0.843830        0.889238        2.373417
  H           -0.867625        0.846216        2.397033
  H           -0.885896       -1.198618        1.124039
  H            0.917756       -1.170846        1.111005
  H            0.882890        1.016132       -0.103939
  H           -0.924881        0.997831       -0.099780
  H           -0.910028       -1.129127       -1.413513
  H            0.894287       -1.134110       -1.406828
  H            0.030211       -0.369186        3.177055
  O            1.347969        1.592554       -5.912393
  H            2.242786        1.185293       -5.793849
  H            0.887438        0.996763       -6.555477
  O            2.118459        2.699138        4.040350
  H            1.422487        3.238132        3.586789
  H            2.485588        2.117728        3.327755
  O            1.863629       -1.426641       -5.933182
  H            2.210094       -0.839962       -6.651778
  H            1.002899       -1.014079       -5.669458
  O           -0.623187       -2.097601       -7.944864
  H           -0.404374       -2.083595       -6.979185
  H           -0.219762       -1.267064       -8.302734
  O            1.756184        3.594600       -2.526209
  H            1.857404        2.714450       -2.968589
  H            1.774163        3.389010       -1.557693
  O            2.680129       -2.057847       -3.501031
  H            2.200894       -1.225701       -3.742850
  H            3.056148       -2.385175       -4.356647
  O            0.971925       -3.078457       -4.440507
  H            0.268660       -3.497331       -3.883215
  H            0.635562       -3.161426       -5.368186
