 xtb: 6.7.1 (edcfbbe)
          06092517523D

 34 26  0     0  0            999 V2000
    0.4001   -0.4486    0.9625 C   0  0  0  0  0  0  0  0  0  0  0  0
    1.4916   -0.2539    2.0518 C   0  0  0  0  0  0  0  0  0  0  0  0
    1.8990   -1.2919    2.6083 O   0  0  0  0  0  0  0  0  0  0  0  0
    1.8959    0.9057    2.2983 O   0  0  0  0  0  0  0  0  0  0  0  0
   -0.0959    0.8329    0.3102 C   0  0  0  0  0  0  0  0  0  0  0  0
   -1.1474    0.5224   -0.6843 N   0  0  0  0  0  0  0  0  0  0  0  0
    0.8503   -1.1224    0.2295 H   0  0  0  0  0  0  0  0  0  0  0  0
   -0.4105   -0.9853    1.4601 H   0  0  0  0  0  0  0  0  0  0  0  0
   -0.5122    1.4994    1.0638 H   0  0  0  0  0  0  0  0  0  0  0  0
    0.7337    1.3434   -0.1801 H   0  0  0  0  0  0  0  0  0  0  0  0
   -1.9682    0.1422   -0.2046 H   0  0  0  0  0  0  0  0  0  0  0  0
   -0.7982   -0.1686   -1.3530 H   0  0  0  0  0  0  0  0  0  0  0  0
   -1.4572    1.3730   -1.2208 H   0  0  0  0  0  0  0  0  0  0  0  0
   -3.3727    2.1865    1.8838 O   0  0  0  0  0  0  0  0  0  0  0  0
   -2.7876    2.9622    1.7384 H   0  0  0  0  0  0  0  0  0  0  0  0
   -3.4956    2.1439    2.8347 H   0  0  0  0  0  0  0  0  0  0  0  0
   -2.1650    2.4902   -2.2731 O   0  0  0  0  0  0  0  0  0  0  0  0
   -3.1226    2.4664   -2.3494 H   0  0  0  0  0  0  0  0  0  0  0  0
   -1.8107    2.5875   -3.1783 H   0  0  0  0  0  0  0  0  0  0  0  0
    1.5644    3.6454   -0.5887 O   0  0  0  0  0  0  0  0  0  0  0  0
    2.4206    4.0647   -0.7083 H   0  0  0  0  0  0  0  0  0  0  0  0
    1.4166    3.5902    0.3764 H   0  0  0  0  0  0  0  0  0  0  0  0
   -1.5816    4.2202    1.5959 O   0  0  0  0  0  0  0  0  0  0  0  0
   -1.4520    4.5002    0.6625 H   0  0  0  0  0  0  0  0  0  0  0  0
   -0.6906    3.9574    1.8956 H   0  0  0  0  0  0  0  0  0  0  0  0
   -0.9762    4.6651   -1.0122 O   0  0  0  0  0  0  0  0  0  0  0  0
   -0.0469    4.3690   -0.9526 H   0  0  0  0  0  0  0  0  0  0  0  0
   -1.4484    3.9256   -1.4507 H   0  0  0  0  0  0  0  0  0  0  0  0
   -1.0749    2.9688   -4.7466 O   0  0  0  0  0  0  0  0  0  0  0  0
   -0.1243    2.7904   -4.8077 H   0  0  0  0  0  0  0  0  0  0  0  0
   -1.2341    3.8396   -5.1262 H   0  0  0  0  0  0  0  0  0  0  0  0
    1.1056    3.4455    2.1248 O   0  0  0  0  0  0  0  0  0  0  0  0
    1.3485    2.4970    2.2126 H   0  0  0  0  0  0  0  0  0  0  0  0
    1.6267    3.9110    2.7839 H   0  0  0  0  0  0  0  0  0  0  0  0
  1  2  1  0  0  0  0
  2  3  2  0  0  0  0
  2  4  4  0  0  0  0
  1  5  1  0  0  0  0
  5  6  1  0  0  0  0
  1  7  1  0  0  0  0
  1  8  1  0  0  0  0
  5  9  1  0  0  0  0
  5 10  1  0  0  0  0
  6 11  1  0  0  0  0
  6 12  1  0  0  0  0
  6 13  1  0  0  0  0
 14 15  1  0  0  0  0
 14 16  1  0  0  0  0
 17 18  1  0  0  0  0
 17 19  1  0  0  0  0
 20 21  1  0  0  0  0
 20 22  1  0  0  0  0
 23 24  1  0  0  0  0
 23 25  1  0  0  0  0
 26 27  1  0  0  0  0
 26 28  1  0  0  0  0
 29 30  1  0  0  0  0
 29 31  1  0  0  0  0
 32 33  1  0  0  0  0
 32 34  1  0  0  0  0
M  END
