 xtb: 6.7.1 (edcfbbe)
          06092517583D

 34 26  0     0  0            999 V2000
    1.3448   -1.3389   -0.3823 H   0  0  0  0  0  0  0  0  0  0  0  0
    0.3083   -1.0539   -0.5622 C   0  0  0  0  0  0  0  0  0  0  0  0
    0.9965   -0.3593   -2.4043 H   0  0  0  0  0  0  0  0  0  0  0  0
   -0.2609   -1.9506   -0.8069 H   0  0  0  0  0  0  0  0  0  0  0  0
    0.2776   -0.0926   -1.6840 N   0  0  0  0  0  0  0  0  0  0  0  0
   -0.2759   -1.1230    1.5186 H   0  0  0  0  0  0  0  0  0  0  0  0
   -0.2451   -0.4034    0.7032 C   0  0  0  0  0  0  0  0  0  0  0  0
    0.7955    1.6942    0.2572 O   0  0  0  0  0  0  0  0  0  0  0  0
    0.6520    0.7806    1.1103 C   0  0  0  0  0  0  0  0  0  0  0  0
    0.5189    0.8343   -1.2667 H   0  0  0  0  0  0  0  0  0  0  0  0
    1.2040    0.7615    2.2293 O   0  0  0  0  0  0  0  0  0  0  0  0
   -0.6491   -0.0357   -2.1067 H   0  0  0  0  0  0  0  0  0  0  0  0
   -1.2525   -0.0213    0.5325 H   0  0  0  0  0  0  0  0  0  0  0  0
    2.2954   -3.5617    0.8545 O   0  0  0  0  0  0  0  0  0  0  0  0
    2.6779   -4.3103    1.3241 H   0  0  0  0  0  0  0  0  0  0  0  0
    2.1457   -2.8781    1.5348 H   0  0  0  0  0  0  0  0  0  0  0  0
    3.0695    3.2731    0.0631 O   0  0  0  0  0  0  0  0  0  0  0  0
    3.3754    3.4232    0.9619 H   0  0  0  0  0  0  0  0  0  0  0  0
    2.2379    2.7652    0.1474 H   0  0  0  0  0  0  0  0  0  0  0  0
   -0.0669   -4.2014   -0.6061 O   0  0  0  0  0  0  0  0  0  0  0  0
    0.1381   -4.9742   -1.1402 H   0  0  0  0  0  0  0  0  0  0  0  0
    0.7267   -4.0143   -0.0760 H   0  0  0  0  0  0  0  0  0  0  0  0
    2.3166   -0.9257   -3.2723 O   0  0  0  0  0  0  0  0  0  0  0  0
    2.9547   -0.2257   -3.4417 H   0  0  0  0  0  0  0  0  0  0  0  0
    2.7440   -1.5308   -2.6299 H   0  0  0  0  0  0  0  0  0  0  0  0
    2.0324   -1.7306    2.9043 O   0  0  0  0  0  0  0  0  0  0  0  0
    2.6844   -1.6456    3.6063 H   0  0  0  0  0  0  0  0  0  0  0  0
    1.7279   -0.8186    2.7121 H   0  0  0  0  0  0  0  0  0  0  0  0
    3.5396   -2.5277   -1.4324 O   0  0  0  0  0  0  0  0  0  0  0  0
    3.1071   -2.8733   -0.6307 H   0  0  0  0  0  0  0  0  0  0  0  0
    4.1144   -3.2276   -1.7553 H   0  0  0  0  0  0  0  0  0  0  0  0
    1.5831   -2.3927   -5.5824 O   0  0  0  0  0  0  0  0  0  0  0  0
    0.8508   -2.9377   -5.2789 H   0  0  0  0  0  0  0  0  0  0  0  0
    1.8546   -1.8596   -4.8134 H   0  0  0  0  0  0  0  0  0  0  0  0
  1  2  1  0  0  0  0
  2  4  1  0  0  0  0
  2  5  1  0  0  0  0
  3  5  1  0  0  0  0
  2  7  1  0  0  0  0
  6  7  1  0  0  0  0
  7  9  1  0  0  0  0
  8  9  4  0  0  0  0
  5 10  1  0  0  0  0
  9 11  4  0  0  0  0
  5 12  1  0  0  0  0
  7 13  1  0  0  0  0
 14 15  1  0  0  0  0
 14 16  1  0  0  0  0
 17 18  1  0  0  0  0
 17 19  1  0  0  0  0
 20 21  1  0  0  0  0
 20 22  1  0  0  0  0
 23 24  1  0  0  0  0
 23 25  1  0  0  0  0
 26 27  1  0  0  0  0
 26 28  1  0  0  0  0
 29 30  1  0  0  0  0
 29 31  1  0  0  0  0
 32 33  1  0  0  0  0
 32 34  1  0  0  0  0
M  END
