 xtb: 6.7.1 (edcfbbe)
          06092518023D

 37 29  0     0  0            999 V2000
   -0.6214    0.4859    2.1907 N   0  0  0  0  0  0  0  0  0  0  0  0
   -0.4944   -0.3544    0.9848 C   0  0  0  0  0  0  0  0  0  0  0  0
    0.1584    0.4701   -0.1167 C   0  0  0  0  0  0  0  0  0  0  0  0
    0.3214   -0.2773   -1.4321 C   0  0  0  0  0  0  0  0  0  0  0  0
    0.8025    0.6500   -2.5690 C   0  0  0  0  0  0  0  0  0  0  0  0
    0.5120    1.8772   -2.4872 O   0  0  0  0  0  0  0  0  0  0  0  0
    1.4214    0.1389   -3.5170 O   0  0  0  0  0  0  0  0  0  0  0  0
    0.3079    0.6732    2.6284 H   0  0  0  0  0  0  0  0  0  0  0  0
   -0.9803    1.4425    1.9256 H   0  0  0  0  0  0  0  0  0  0  0  0
   -1.4831   -0.6783    0.6570 H   0  0  0  0  0  0  0  0  0  0  0  0
    0.1074   -1.2370    1.2030 H   0  0  0  0  0  0  0  0  0  0  0  0
    1.1422    0.8131    0.2058 H   0  0  0  0  0  0  0  0  0  0  0  0
   -0.4655    1.3396   -0.3203 H   0  0  0  0  0  0  0  0  0  0  0  0
   -0.6348   -0.6883   -1.7704 H   0  0  0  0  0  0  0  0  0  0  0  0
    1.0351   -1.0998   -1.3650 H   0  0  0  0  0  0  0  0  0  0  0  0
   -1.2361    0.0650    2.8867 H   0  0  0  0  0  0  0  0  0  0  0  0
    2.8359    2.2904    1.1510 O   0  0  0  0  0  0  0  0  0  0  0  0
    2.4320    2.0587    2.0093 H   0  0  0  0  0  0  0  0  0  0  0  0
    2.1760    2.8358    0.6921 H   0  0  0  0  0  0  0  0  0  0  0  0
    0.8003    3.6315   -0.3503 O   0  0  0  0  0  0  0  0  0  0  0  0
    0.7438    3.0207   -1.1092 H   0  0  0  0  0  0  0  0  0  0  0  0
    0.9576    4.5058   -0.7179 H   0  0  0  0  0  0  0  0  0  0  0  0
    1.5502    1.4990    3.5229 O   0  0  0  0  0  0  0  0  0  0  0  0
    2.0284    1.1892    4.2953 H   0  0  0  0  0  0  0  0  0  0  0  0
    0.9896    2.2564    3.8124 H   0  0  0  0  0  0  0  0  0  0  0  0
   -3.2978    3.3256   -0.1426 O   0  0  0  0  0  0  0  0  0  0  0  0
   -4.1446    2.8713   -0.1219 H   0  0  0  0  0  0  0  0  0  0  0  0
   -2.8821    3.0915   -0.9936 H   0  0  0  0  0  0  0  0  0  0  0  0
   -1.1841    3.0717    1.5508 O   0  0  0  0  0  0  0  0  0  0  0  0
   -0.4621    3.2989    0.9369 H   0  0  0  0  0  0  0  0  0  0  0  0
   -2.0078    3.2470    1.0569 H   0  0  0  0  0  0  0  0  0  0  0  0
   -2.0974    2.6050   -2.5219 O   0  0  0  0  0  0  0  0  0  0  0  0
   -2.2039    3.1353   -3.3166 H   0  0  0  0  0  0  0  0  0  0  0  0
   -1.1575    2.3314   -2.5083 H   0  0  0  0  0  0  0  0  0  0  0  0
   -0.1600    3.5043    4.0699 O   0  0  0  0  0  0  0  0  0  0  0  0
   -0.6510    3.4619    3.2258 H   0  0  0  0  0  0  0  0  0  0  0  0
    0.1400    4.4114    4.1651 H   0  0  0  0  0  0  0  0  0  0  0  0
  1  2  1  0  0  0  0
  2  3  1  0  0  0  0
  3  4  1  0  0  0  0
  4  5  1  0  0  0  0
  5  6  4  0  0  0  0
  5  7  2  0  0  0  0
  1  8  1  0  0  0  0
  1  9  1  0  0  0  0
  2 10  1  0  0  0  0
  2 11  1  0  0  0  0
  3 12  1  0  0  0  0
  3 13  1  0  0  0  0
  4 14  1  0  0  0  0
  4 15  1  0  0  0  0
  1 16  1  0  0  0  0
 17 18  1  0  0  0  0
 17 19  1  0  0  0  0
 20 21  1  0  0  0  0
 20 22  1  0  0  0  0
 23 24  1  0  0  0  0
 23 25  1  0  0  0  0
 26 27  1  0  0  0  0
 26 28  1  0  0  0  0
 29 30  1  0  0  0  0
 29 31  1  0  0  0  0
 32 33  1  0  0  0  0
 32 34  1  0  0  0  0
 35 36  1  0  0  0  0
 35 37  1  0  0  0  0
M  END
