 xtb: 6.7.1 (edcfbbe)
          06102519333D

 46 35  0     0  0            999 V2000
   -0.4763   -0.9195    2.0939 N   0  0  0  0  0  0  0  0  0  0  0  0
   -1.1887   -0.5816    0.8513 C   0  0  0  0  0  0  0  0  0  0  0  0
   -0.2924    0.2388   -0.0711 C   0  0  0  0  0  0  0  0  0  0  0  0
   -1.0726    0.8563   -1.2376 C   0  0  0  0  0  0  0  0  0  0  0  0
   -1.6551   -0.2252   -2.1439 C   0  0  0  0  0  0  0  0  0  0  0  0
   -2.7492   -0.7475   -1.8309 O   0  0  0  0  0  0  0  0  0  0  0  0
   -1.0007   -0.5645   -3.1636 O   0  0  0  0  0  0  0  0  0  0  0  0
    0.3875   -1.4419    1.8725 H   0  0  0  0  0  0  0  0  0  0  0  0
   -0.2118   -0.0462    2.5992 H   0  0  0  0  0  0  0  0  0  0  0  0
   -2.0836   -0.0050    1.0880 H   0  0  0  0  0  0  0  0  0  0  0  0
   -1.5017   -1.4979    0.3503 H   0  0  0  0  0  0  0  0  0  0  0  0
    0.5097   -0.3835   -0.4722 H   0  0  0  0  0  0  0  0  0  0  0  0
    0.1565    1.0540    0.4983 H   0  0  0  0  0  0  0  0  0  0  0  0
   -1.8964    1.4600   -0.8539 H   0  0  0  0  0  0  0  0  0  0  0  0
   -0.4069    1.4800   -1.8354 H   0  0  0  0  0  0  0  0  0  0  0  0
   -1.0848   -1.5111    2.7071 H   0  0  0  0  0  0  0  0  0  0  0  0
   -3.0785   -3.3818   -1.1410 O   0  0  0  0  0  0  0  0  0  0  0  0
   -2.9677   -2.4605   -1.4383 H   0  0  0  0  0  0  0  0  0  0  0  0
   -3.7468   -3.7624   -1.7182 H   0  0  0  0  0  0  0  0  0  0  0  0
   -2.8540   -4.2468    1.4925 O   0  0  0  0  0  0  0  0  0  0  0  0
   -2.9727   -3.8755    0.6007 H   0  0  0  0  0  0  0  0  0  0  0  0
   -2.4099   -5.0906    1.3697 H   0  0  0  0  0  0  0  0  0  0  0  0
   -1.1314    0.0476   -5.9387 O   0  0  0  0  0  0  0  0  0  0  0  0
   -1.2865   -0.8194   -6.3297 H   0  0  0  0  0  0  0  0  0  0  0  0
   -1.1900   -0.0975   -4.9821 H   0  0  0  0  0  0  0  0  0  0  0  0
    1.3356    0.7794   -3.8607 O   0  0  0  0  0  0  0  0  0  0  0  0
    1.1763    0.9672   -4.7917 H   0  0  0  0  0  0  0  0  0  0  0  0
    0.5635    0.2536   -3.5773 H   0  0  0  0  0  0  0  0  0  0  0  0
   -4.2542    0.5234    0.1326 O   0  0  0  0  0  0  0  0  0  0  0  0
   -5.1228    0.1139    0.1846 H   0  0  0  0  0  0  0  0  0  0  0  0
   -3.7843    0.0696   -0.5926 H   0  0  0  0  0  0  0  0  0  0  0  0
    0.2267    1.3894    3.4405 O   0  0  0  0  0  0  0  0  0  0  0  0
    0.6536    1.1160    4.2725 H   0  0  0  0  0  0  0  0  0  0  0  0
   -0.4373    2.0421    3.6773 H   0  0  0  0  0  0  0  0  0  0  0  0
    1.8602   -2.3471    1.3855 O   0  0  0  0  0  0  0  0  0  0  0  0
    2.7486   -2.0585    1.6121 H   0  0  0  0  0  0  0  0  0  0  0  0
    1.8724   -3.3045    1.3018 H   0  0  0  0  0  0  0  0  0  0  0  0
   -1.2453   -2.9327   -4.5943 O   0  0  0  0  0  0  0  0  0  0  0  0
   -0.4167   -3.3964   -4.4362 H   0  0  0  0  0  0  0  0  0  0  0  0
   -1.2090   -2.1291   -4.0418 H   0  0  0  0  0  0  0  0  0  0  0  0
   -2.1815   -2.5145    3.5215 O   0  0  0  0  0  0  0  0  0  0  0  0
   -2.9992   -2.1201    3.8367 H   0  0  0  0  0  0  0  0  0  0  0  0
   -2.4363   -3.1705    2.8455 H   0  0  0  0  0  0  0  0  0  0  0  0
    1.2382    0.3789    5.8354 O   0  0  0  0  0  0  0  0  0  0  0  0
    0.6199   -0.0625    6.4265 H   0  0  0  0  0  0  0  0  0  0  0  0
    2.0547   -0.1294    5.8459 H   0  0  0  0  0  0  0  0  0  0  0  0
  1  2  1  0  0  0  0
  2  3  1  0  0  0  0
  3  4  1  0  0  0  0
  4  5  1  0  0  0  0
  5  6  4  0  0  0  0
  5  7  4  0  0  0  0
  1  8  1  0  0  0  0
  1  9  1  0  0  0  0
  2 10  1  0  0  0  0
  2 11  1  0  0  0  0
  3 12  1  0  0  0  0
  3 13  1  0  0  0  0
  4 14  1  0  0  0  0
  4 15  1  0  0  0  0
  1 16  1  0  0  0  0
 17 18  1  0  0  0  0
 17 19  1  0  0  0  0
 20 21  1  0  0  0  0
 20 22  1  0  0  0  0
 23 24  1  0  0  0  0
 23 25  1  0  0  0  0
 26 27  1  0  0  0  0
 26 28  1  0  0  0  0
 29 30  1  0  0  0  0
 29 31  1  0  0  0  0
 32 33  1  0  0  0  0
 32 34  1  0  0  0  0
 35 36  1  0  0  0  0
 35 37  1  0  0  0  0
 38 39  1  0  0  0  0
 38 40  1  0  0  0  0
 41 42  1  0  0  0  0
 41 43  1  0  0  0  0
 44 45  1  0  0  0  0
 44 46  1  0  0  0  0
M  END
