13

H         -1.84541       -0.79975       -1.18451
C         -1.61918       -0.20418       -2.09629
H         -0.14434       -1.48306       -2.74231
H         -2.31624       -0.53248       -2.89815
N         -0.24970       -0.46180       -2.54792
H         -2.95995        1.42360       -1.62583
C         -1.87615        1.28892       -1.83036
O         -0.32041        1.08865        0.10760
C         -1.12195        1.85663       -0.65556
H          0.45020       -0.19325       -1.82267
O         -1.26234        3.03493       -0.37132
H         -0.06085        0.06694       -3.42993
H         -1.62217        1.86564       -2.74452
