 xtb: 6.7.1 (edcfbbe)
          06112501073D

 22 19  0     0  0            999 V2000
    1.3769   -0.6162    0.2946 N   0  0  0  0  0  0  0  0  0  0  0  0
    2.7957   -0.2186    0.1572 C   0  0  0  0  0  0  0  0  0  0  0  0
    2.9675    0.7345   -1.0195 C   0  0  0  0  0  0  0  0  0  0  0  0
    4.4171    1.1710   -1.1862 C   0  0  0  0  0  0  0  0  0  0  0  0
    4.5951    2.2348   -2.2967 C   0  0  0  0  0  0  0  0  0  0  0  0
    3.5622    2.7898   -2.7429 O   0  0  0  0  0  0  0  0  0  0  0  0
    5.7616    2.4779   -2.6654 O   0  0  0  0  0  0  0  0  0  0  0  0
    0.7775    0.2356    0.4127 H   0  0  0  0  0  0  0  0  0  0  0  0
    1.0634   -1.0995   -0.5518 H   0  0  0  0  0  0  0  0  0  0  0  0
    3.4137   -1.1034    0.0019 H   0  0  0  0  0  0  0  0  0  0  0  0
    3.1191    0.2772    1.0719 H   0  0  0  0  0  0  0  0  0  0  0  0
    2.3672    1.6345   -0.8821 H   0  0  0  0  0  0  0  0  0  0  0  0
    2.6479    0.2677   -1.9526 H   0  0  0  0  0  0  0  0  0  0  0  0
    5.0731    0.3366   -1.4405 H   0  0  0  0  0  0  0  0  0  0  0  0
    4.8016    1.6284   -0.2713 H   0  0  0  0  0  0  0  0  0  0  0  0
    1.2415   -1.2280    1.1042 H   0  0  0  0  0  0  0  0  0  0  0  0
   -0.2459    1.5840    0.5727 O   0  0  0  0  0  0  0  0  0  0  0  0
   -0.2067    2.2461    1.2682 H   0  0  0  0  0  0  0  0  0  0  0  0
   -0.7323    1.9607   -0.1652 H   0  0  0  0  0  0  0  0  0  0  0  0
    4.1329    4.6236   -4.6754 O   0  0  0  0  0  0  0  0  0  0  0  0
    3.8563    3.9771   -3.9845 H   0  0  0  0  0  0  0  0  0  0  0  0
    5.0915    4.5454   -4.7084 H   0  0  0  0  0  0  0  0  0  0  0  0
  1  2  1  0  0  0  0
  2  3  1  0  0  0  0
  3  4  1  0  0  0  0
  4  5  1  0  0  0  0
  5  6  4  0  0  0  0
  5  7  2  0  0  0  0
  1  8  1  0  0  0  0
  1  9  1  0  0  0  0
  2 10  1  0  0  0  0
  2 11  1  0  0  0  0
  3 12  1  0  0  0  0
  3 13  1  0  0  0  0
  4 14  1  0  0  0  0
  4 15  1  0  0  0  0
  1 16  1  0  0  0  0
 17 18  1  0  0  0  0
 17 19  1  0  0  0  0
 20 21  1  0  0  0  0
 20 22  1  0  0  0  0
M  END
