 xtb: 6.7.1 (edcfbbe)
          06092518053D

 37 29  0     0  0            999 V2000
   -0.5136   -1.2660    1.5455 N   0  0  0  0  0  0  0  0  0  0  0  0
    0.2524   -0.0802    1.1296 C   0  0  0  0  0  0  0  0  0  0  0  0
   -0.3079    0.5285   -0.1559 C   0  0  0  0  0  0  0  0  0  0  0  0
   -0.7116   -0.5061   -1.2157 C   0  0  0  0  0  0  0  0  0  0  0  0
    0.3618   -1.5895   -1.4826 C   0  0  0  0  0  0  0  0  0  0  0  0
    1.0595   -1.4874   -2.5091 O   0  0  0  0  0  0  0  0  0  0  0  0
    0.4447   -2.5224   -0.6413 O   0  0  0  0  0  0  0  0  0  0  0  0
   -0.2131   -1.5890    2.4950 H   0  0  0  0  0  0  0  0  0  0  0  0
   -1.5329   -1.0760    1.5583 H   0  0  0  0  0  0  0  0  0  0  0  0
    0.2273    0.6661    1.9232 H   0  0  0  0  0  0  0  0  0  0  0  0
    1.2846   -0.3910    0.9604 H   0  0  0  0  0  0  0  0  0  0  0  0
    0.4498    1.1862   -0.5825 H   0  0  0  0  0  0  0  0  0  0  0  0
   -1.1863    1.1326    0.0760 H   0  0  0  0  0  0  0  0  0  0  0  0
   -1.6267   -1.0191   -0.9153 H   0  0  0  0  0  0  0  0  0  0  0  0
   -0.8966    0.0027   -2.1635 H   0  0  0  0  0  0  0  0  0  0  0  0
   -0.3057   -2.0024    0.8310 H   0  0  0  0  0  0  0  0  0  0  0  0
    1.5213    0.5382    4.4881 O   0  0  0  0  0  0  0  0  0  0  0  0
    2.4549    0.7615    4.5097 H   0  0  0  0  0  0  0  0  0  0  0  0
    1.0342    1.3775    4.3912 H   0  0  0  0  0  0  0  0  0  0  0  0
   -3.2093    4.2793    2.9462 O   0  0  0  0  0  0  0  0  0  0  0  0
   -3.9970    4.0538    2.4444 H   0  0  0  0  0  0  0  0  0  0  0  0
   -2.4449    3.9763    2.4092 H   0  0  0  0  0  0  0  0  0  0  0  0
    0.2364    2.9837    4.1760 O   0  0  0  0  0  0  0  0  0  0  0  0
    0.7511    3.7386    4.4778 H   0  0  0  0  0  0  0  0  0  0  0  0
   -0.6187    3.0454    4.6588 H   0  0  0  0  0  0  0  0  0  0  0  0
   -3.3032   -0.9996    1.7017 O   0  0  0  0  0  0  0  0  0  0  0  0
   -3.7509   -1.8500    1.6856 H   0  0  0  0  0  0  0  0  0  0  0  0
   -3.6075   -0.5333    2.4875 H   0  0  0  0  0  0  0  0  0  0  0  0
    0.3467   -1.9253    4.0603 O   0  0  0  0  0  0  0  0  0  0  0  0
    0.7218   -1.0645    4.3245 H   0  0  0  0  0  0  0  0  0  0  0  0
    1.0558   -2.5699    4.1299 H   0  0  0  0  0  0  0  0  0  0  0  0
   -0.9295    3.4206    1.7045 O   0  0  0  0  0  0  0  0  0  0  0  0
   -0.4481    3.1919    2.5259 H   0  0  0  0  0  0  0  0  0  0  0  0
   -0.4082    4.0974    1.2655 H   0  0  0  0  0  0  0  0  0  0  0  0
   -2.1715    3.3794    5.3365 O   0  0  0  0  0  0  0  0  0  0  0  0
   -2.7500    2.6834    5.6611 H   0  0  0  0  0  0  0  0  0  0  0  0
   -2.6270    3.7907    4.5757 H   0  0  0  0  0  0  0  0  0  0  0  0
  1  2  1  0  0  0  0
  2  3  1  0  0  0  0
  3  4  1  0  0  0  0
  4  5  1  0  0  0  0
  5  6  2  0  0  0  0
  5  7  4  0  0  0  0
  1  8  1  0  0  0  0
  1  9  1  0  0  0  0
  2 10  1  0  0  0  0
  2 11  1  0  0  0  0
  3 12  1  0  0  0  0
  3 13  1  0  0  0  0
  4 14  1  0  0  0  0
  4 15  1  0  0  0  0
  1 16  1  0  0  0  0
 17 18  1  0  0  0  0
 17 19  1  0  0  0  0
 20 21  1  0  0  0  0
 20 22  1  0  0  0  0
 23 24  1  0  0  0  0
 23 25  1  0  0  0  0
 26 27  1  0  0  0  0
 26 28  1  0  0  0  0
 29 30  1  0  0  0  0
 29 31  1  0  0  0  0
 32 33  1  0  0  0  0
 32 34  1  0  0  0  0
 35 36  1  0  0  0  0
 35 37  1  0  0  0  0
M  END
