 xtb: 6.7.1 (edcfbbe)
          06102519183D

 88 63  0     0  0            999 V2000
   -0.1981    0.3067    1.3886 N   0  0  0  0  0  0  0  0  0  0  0  0
   -0.1546   -0.2559    0.0294 C   0  0  0  0  0  0  0  0  0  0  0  0
    0.1538    0.8397   -0.9803 C   0  0  0  0  0  0  0  0  0  0  0  0
    0.2404    0.3002   -2.3994 C   0  0  0  0  0  0  0  0  0  0  0  0
    0.7401    1.3212   -3.4059 C   0  0  0  0  0  0  0  0  0  0  0  0
    0.9986    2.4963   -3.0336 O   0  0  0  0  0  0  0  0  0  0  0  0
    0.8500    0.9573   -4.6058 O   0  0  0  0  0  0  0  0  0  0  0  0
    0.5629    1.0093    1.5146 H   0  0  0  0  0  0  0  0  0  0  0  0
   -1.0855    0.7981    1.5877 H   0  0  0  0  0  0  0  0  0  0  0  0
   -1.1066   -0.7300   -0.2049 H   0  0  0  0  0  0  0  0  0  0  0  0
    0.6336   -1.0071   -0.0275 H   0  0  0  0  0  0  0  0  0  0  0  0
    1.1200    1.2781   -0.7354 H   0  0  0  0  0  0  0  0  0  0  0  0
   -0.6105    1.6130   -0.9450 H   0  0  0  0  0  0  0  0  0  0  0  0
   -0.7332   -0.0376   -2.7634 H   0  0  0  0  0  0  0  0  0  0  0  0
    0.9188   -0.5546   -2.4540 H   0  0  0  0  0  0  0  0  0  0  0  0
   -0.0767   -0.4485    2.0842 H   0  0  0  0  0  0  0  0  0  0  0  0
   -2.9727    4.4426   -2.3018 O   0  0  0  0  0  0  0  0  0  0  0  0
   -3.6405    5.1309   -2.3606 H   0  0  0  0  0  0  0  0  0  0  0  0
   -3.4319    3.5907   -2.4671 H   0  0  0  0  0  0  0  0  0  0  0  0
   -3.5133    1.5945    0.0010 O   0  0  0  0  0  0  0  0  0  0  0  0
   -2.7273    2.1708   -0.0291 H   0  0  0  0  0  0  0  0  0  0  0  0
   -4.1057    2.0410    0.6364 H   0  0  0  0  0  0  0  0  0  0  0  0
   -2.6622    0.4873   -4.2419 O   0  0  0  0  0  0  0  0  0  0  0  0
   -2.3427    1.1237   -4.9061 H   0  0  0  0  0  0  0  0  0  0  0  0
   -3.2423    1.0035   -3.6509 H   0  0  0  0  0  0  0  0  0  0  0  0
    0.2305   -1.6997    3.3260 O   0  0  0  0  0  0  0  0  0  0  0  0
   -0.0657   -2.6107    3.2921 H   0  0  0  0  0  0  0  0  0  0  0  0
   -0.4437   -1.1916    3.8509 H   0  0  0  0  0  0  0  0  0  0  0  0
    2.1553    2.2096   -6.7275 O   0  0  0  0  0  0  0  0  0  0  0  0
    2.2520    3.0842   -6.3076 H   0  0  0  0  0  0  0  0  0  0  0  0
    1.8055    1.6434   -6.0150 H   0  0  0  0  0  0  0  0  0  0  0  0
    2.0187    4.3121   -4.8812 O   0  0  0  0  0  0  0  0  0  0  0  0
    1.2215    4.8453   -4.9876 H   0  0  0  0  0  0  0  0  0  0  0  0
    1.7678    3.6198   -4.2351 H   0  0  0  0  0  0  0  0  0  0  0  0
    2.7413   -0.8503    3.8036 O   0  0  0  0  0  0  0  0  0  0  0  0
    1.8206   -1.1471    3.6182 H   0  0  0  0  0  0  0  0  0  0  0  0
    3.2210   -1.6342    4.0834 H   0  0  0  0  0  0  0  0  0  0  0  0
   -0.6457   -1.2484   -5.3728 O   0  0  0  0  0  0  0  0  0  0  0  0
   -0.0125   -0.5410   -5.1446 H   0  0  0  0  0  0  0  0  0  0  0  0
   -1.5015   -0.9183   -5.0601 H   0  0  0  0  0  0  0  0  0  0  0  0
    1.6624    2.3219    1.7238 O   0  0  0  0  0  0  0  0  0  0  0  0
    1.5760    2.9082    0.9575 H   0  0  0  0  0  0  0  0  0  0  0  0
    2.4790    1.8025    1.6079 H   0  0  0  0  0  0  0  0  0  0  0  0
   -3.0013   -0.4220    1.8350 O   0  0  0  0  0  0  0  0  0  0  0  0
   -3.1791    0.2743    1.1725 H   0  0  0  0  0  0  0  0  0  0  0  0
   -3.6846   -1.0833    1.7229 H   0  0  0  0  0  0  0  0  0  0  0  0
   -1.5093    3.5969   -0.0745 O   0  0  0  0  0  0  0  0  0  0  0  0
   -1.9746    4.0523   -0.7933 H   0  0  0  0  0  0  0  0  0  0  0  0
   -0.5591    3.7410   -0.2279 H   0  0  0  0  0  0  0  0  0  0  0  0
    1.2161    3.8704   -0.6311 O   0  0  0  0  0  0  0  0  0  0  0  0
    1.6338    4.7129   -0.8264 H   0  0  0  0  0  0  0  0  0  0  0  0
    1.1961    3.3680   -1.4673 H   0  0  0  0  0  0  0  0  0  0  0  0
    2.9394   -1.2433   -0.4990 O   0  0  0  0  0  0  0  0  0  0  0  0
    3.7447   -1.5526   -0.9171 H   0  0  0  0  0  0  0  0  0  0  0  0
    3.2117   -0.6127    0.1956 H   0  0  0  0  0  0  0  0  0  0  0  0
   -0.0517    1.5555   -8.3427 O   0  0  0  0  0  0  0  0  0  0  0  0
   -0.6821    1.8668   -7.6717 H   0  0  0  0  0  0  0  0  0  0  0  0
    0.8237    1.7670   -7.9691 H   0  0  0  0  0  0  0  0  0  0  0  0
   -0.8864    4.3049   -4.0859 O   0  0  0  0  0  0  0  0  0  0  0  0
   -1.6367    4.4311   -3.4703 H   0  0  0  0  0  0  0  0  0  0  0  0
   -0.2790    3.7016   -3.6248 H   0  0  0  0  0  0  0  0  0  0  0  0
    0.1788    2.1291    4.0996 O   0  0  0  0  0  0  0  0  0  0  0  0
    0.7457    2.2739    3.3204 H   0  0  0  0  0  0  0  0  0  0  0  0
    0.7931    1.8604    4.8025 H   0  0  0  0  0  0  0  0  0  0  0  0
    2.2528    1.1565    5.6464 O   0  0  0  0  0  0  0  0  0  0  0  0
    2.4596    0.4347    5.0177 H   0  0  0  0  0  0  0  0  0  0  0  0
    3.0759    1.6213    5.8133 H   0  0  0  0  0  0  0  0  0  0  0  0
   -1.5958   -0.0743    4.2846 O   0  0  0  0  0  0  0  0  0  0  0  0
   -2.1731   -0.0478    3.5004 H   0  0  0  0  0  0  0  0  0  0  0  0
   -1.0820    0.7548    4.2668 H   0  0  0  0  0  0  0  0  0  0  0  0
   -4.6492    2.7867    2.1989 O   0  0  0  0  0  0  0  0  0  0  0  0
   -5.1568    2.4145    2.9230 H   0  0  0  0  0  0  0  0  0  0  0  0
   -3.7031    2.7018    2.4533 H   0  0  0  0  0  0  0  0  0  0  0  0
   -1.2758    2.2675   -5.8751 O   0  0  0  0  0  0  0  0  0  0  0  0
   -1.2492    3.1254   -5.4004 H   0  0  0  0  0  0  0  0  0  0  0  0
   -0.4786    1.7978   -5.5731 H   0  0  0  0  0  0  0  0  0  0  0  0
   -4.2397    2.0349   -2.5226 O   0  0  0  0  0  0  0  0  0  0  0  0
   -4.0124    1.7546   -1.5985 H   0  0  0  0  0  0  0  0  0  0  0  0
   -5.1881    1.9153   -2.6192 H   0  0  0  0  0  0  0  0  0  0  0  0
    3.6725    0.4586    1.6114 O   0  0  0  0  0  0  0  0  0  0  0  0
    3.3175   -0.0254    2.3923 H   0  0  0  0  0  0  0  0  0  0  0  0
    4.5991    0.6298    1.7949 H   0  0  0  0  0  0  0  0  0  0  0  0
   -1.9667    2.3742    2.3704 O   0  0  0  0  0  0  0  0  0  0  0  0
   -1.3406    2.5349    3.0895 H   0  0  0  0  0  0  0  0  0  0  0  0
   -1.7085    2.9635    1.6444 H   0  0  0  0  0  0  0  0  0  0  0  0
   -0.5038   -1.2493   -8.2081 O   0  0  0  0  0  0  0  0  0  0  0  0
   -0.5426   -1.3481   -7.2389 H   0  0  0  0  0  0  0  0  0  0  0  0
   -0.3391   -0.3008   -8.3616 H   0  0  0  0  0  0  0  0  0  0  0  0
  1  2  1  0  0  0  0
  2  3  1  0  0  0  0
  3  4  1  0  0  0  0
  4  5  1  0  0  0  0
  5  6  4  0  0  0  0
  5  7  4  0  0  0  0
  1  8  1  0  0  0  0
  1  9  1  0  0  0  0
  2 10  1  0  0  0  0
  2 11  1  0  0  0  0
  3 12  1  0  0  0  0
  3 13  1  0  0  0  0
  4 14  1  0  0  0  0
  4 15  1  0  0  0  0
  1 16  1  0  0  0  0
 17 18  1  0  0  0  0
 17 19  1  0  0  0  0
 20 21  1  0  0  0  0
 20 22  1  0  0  0  0
 23 24  1  0  0  0  0
 23 25  1  0  0  0  0
 26 27  1  0  0  0  0
 26 28  1  0  0  0  0
 29 30  1  0  0  0  0
 29 31  1  0  0  0  0
 32 33  1  0  0  0  0
 32 34  1  0  0  0  0
 35 36  1  0  0  0  0
 35 37  1  0  0  0  0
 38 39  1  0  0  0  0
 38 40  1  0  0  0  0
 41 42  1  0  0  0  0
 41 43  1  0  0  0  0
 44 45  1  0  0  0  0
 44 46  1  0  0  0  0
 47 48  1  0  0  0  0
 47 49  1  0  0  0  0
 50 51  1  0  0  0  0
 50 52  1  0  0  0  0
 53 54  1  0  0  0  0
 53 55  1  0  0  0  0
 56 57  1  0  0  0  0
 56 58  1  0  0  0  0
 59 60  1  0  0  0  0
 59 61  1  0  0  0  0
 62 63  1  0  0  0  0
 62 64  1  0  0  0  0
 65 66  1  0  0  0  0
 65 67  1  0  0  0  0
 68 69  1  0  0  0  0
 68 70  1  0  0  0  0
 71 72  1  0  0  0  0
 71 73  1  0  0  0  0
 74 75  1  0  0  0  0
 74 76  1  0  0  0  0
 77 78  1  0  0  0  0
 77 79  1  0  0  0  0
 80 81  1  0  0  0  0
 80 82  1  0  0  0  0
 83 84  1  0  0  0  0
 83 85  1  0  0  0  0
 86 87  1  0  0  0  0
 86 88  1  0  0  0  0
M  END
