37

N 2.931341 -0.547728 1.317966
H 2.097493 -1.047514 1.608676
H 3.632975 -1.273980 1.235705
H 3.208305 0.127594 2.017846
C 2.672190 0.000000 0.000000
H 3.560899 0.559866 -0.320384
H 2.600077 -0.926881 -0.574362
C 1.297288 0.732833 0.000000
H 1.345563 1.458201 -0.811179
H 1.279662 1.258554 0.950950
C 0.000000 0.000000 0.000000
H -0.247774 -0.318989 -1.019683
H -0.736961 0.641689 0.469174
C -0.110883 -1.228320 1.018350
O 0.039892 -2.322156 0.437152
O 0.534206 -1.067391 2.088612
O 2.761330 -4.184912 0.433324
H 2.271433 -4.733552 1.048705
H 2.090645 -3.822656 -0.147324
O 4.891344 -2.553490 0.840148
H 4.334796 -3.323376 0.736080
H 5.743454 -2.897677 1.101956
O 0.531512 -4.481409 2.467260
H 0.316033 -3.627547 2.089121
H -0.311542 -4.853003 2.720791
O 1.727721 -2.399117 3.984773
H 1.482604 -3.319672 3.905415
H 1.209644 -1.949499 3.320589
O 0.374524 -4.259451 -1.080513
H -0.435860 -4.778940 -1.035691
H 0.159195 -3.442152 -0.619150
O 3.954060 1.544207 2.911689
H 3.589116 1.146896 3.700524
H 4.113218 2.457275 3.150593
O 2.688581 -0.100246 4.973227
H 1.887066 0.125720 5.445152
H 2.599291 -1.038476 4.788962
