 xtb: 6.7.1 (edcfbbe)
          06092518043D

 37 29  0     0  0            999 V2000
    1.4638   -0.1591    1.4820 N   0  0  0  0  0  0  0  0  0  0  0  0
    0.6471   -0.3434    0.2678 C   0  0  0  0  0  0  0  0  0  0  0  0
    0.1782    1.0081   -0.2567 C   0  0  0  0  0  0  0  0  0  0  0  0
   -0.6989    0.8563   -1.4939 C   0  0  0  0  0  0  0  0  0  0  0  0
    0.0018    0.2743   -2.7428 C   0  0  0  0  0  0  0  0  0  0  0  0
   -0.7371   -0.1291   -3.6634 O   0  0  0  0  0  0  0  0  0  0  0  0
    1.2573    0.2458   -2.7783 O   0  0  0  0  0  0  0  0  0  0  0  0
    2.3021    0.4263    1.2596 H   0  0  0  0  0  0  0  0  0  0  0  0
    0.9097    0.3748    2.2047 H   0  0  0  0  0  0  0  0  0  0  0  0
   -0.2209   -0.9623    0.5000 H   0  0  0  0  0  0  0  0  0  0  0  0
    1.2297   -0.8427   -0.5083 H   0  0  0  0  0  0  0  0  0  0  0  0
    1.0366    1.6265   -0.5140 H   0  0  0  0  0  0  0  0  0  0  0  0
   -0.3955    1.5233    0.5143 H   0  0  0  0  0  0  0  0  0  0  0  0
   -1.5639    0.2173   -1.3001 H   0  0  0  0  0  0  0  0  0  0  0  0
   -1.0840    1.8315   -1.8022 H   0  0  0  0  0  0  0  0  0  0  0  0
    1.7609   -1.0544    1.8691 H   0  0  0  0  0  0  0  0  0  0  0  0
    0.2013    1.4515    3.2508 O   0  0  0  0  0  0  0  0  0  0  0  0
    0.3170    1.3943    4.2029 H   0  0  0  0  0  0  0  0  0  0  0  0
    0.7393    2.2252    2.9518 H   0  0  0  0  0  0  0  0  0  0  0  0
    3.3137    1.6652   -1.8701 O   0  0  0  0  0  0  0  0  0  0  0  0
    2.5222    1.1612   -2.1715 H   0  0  0  0  0  0  0  0  0  0  0  0
    4.0363    1.3693   -2.4324 H   0  0  0  0  0  0  0  0  0  0  0  0
    3.5760    1.4937    0.8612 O   0  0  0  0  0  0  0  0  0  0  0  0
    4.5050    1.3327    1.0487 H   0  0  0  0  0  0  0  0  0  0  0  0
    3.4953    1.6159   -0.1048 H   0  0  0  0  0  0  0  0  0  0  0  0
    0.6918    4.4518    0.0481 O   0  0  0  0  0  0  0  0  0  0  0  0
    0.2979    5.3284    0.0231 H   0  0  0  0  0  0  0  0  0  0  0  0
    1.3736    4.4368   -0.6536 H   0  0  0  0  0  0  0  0  0  0  0  0
    2.5400    4.3196   -1.9926 O   0  0  0  0  0  0  0  0  0  0  0  0
    2.8571    3.3949   -1.9634 H   0  0  0  0  0  0  0  0  0  0  0  0
    2.2812    4.4912   -2.9040 H   0  0  0  0  0  0  0  0  0  0  0  0
    1.5594    3.3574   -7.4510 O   0  0  0  0  0  0  0  0  0  0  0  0
    1.2103    3.2547   -8.3423 H   0  0  0  0  0  0  0  0  0  0  0  0
    1.2984    2.5704   -6.9601 H   0  0  0  0  0  0  0  0  0  0  0  0
    1.8663    3.2902    2.2490 O   0  0  0  0  0  0  0  0  0  0  0  0
    1.4112    3.7485    1.5177 H   0  0  0  0  0  0  0  0  0  0  0  0
    2.5556    2.7578    1.8149 H   0  0  0  0  0  0  0  0  0  0  0  0
  1  2  1  0  0  0  0
  2  3  1  0  0  0  0
  3  4  1  0  0  0  0
  4  5  1  0  0  0  0
  5  6  2  0  0  0  0
  5  7  4  0  0  0  0
  1  8  1  0  0  0  0
  1  9  1  0  0  0  0
  2 10  1  0  0  0  0
  2 11  1  0  0  0  0
  3 12  1  0  0  0  0
  3 13  1  0  0  0  0
  4 14  1  0  0  0  0
  4 15  1  0  0  0  0
  1 16  1  0  0  0  0
 17 18  1  0  0  0  0
 17 19  1  0  0  0  0
 20 21  1  0  0  0  0
 20 22  1  0  0  0  0
 23 24  1  0  0  0  0
 23 25  1  0  0  0  0
 26 27  1  0  0  0  0
 26 28  1  0  0  0  0
 29 30  1  0  0  0  0
 29 31  1  0  0  0  0
 32 33  1  0  0  0  0
 32 34  1  0  0  0  0
 35 36  1  0  0  0  0
 35 37  1  0  0  0  0
M  END
