 xtb: 6.7.1 (edcfbbe)
          06092518053D

 37 29  0     0  0            999 V2000
   -0.1206   -0.1563    1.9150 N   0  0  0  0  0  0  0  0  0  0  0  0
    1.2105    0.0453    1.3179 C   0  0  0  0  0  0  0  0  0  0  0  0
    1.1179    0.5927   -0.1071 C   0  0  0  0  0  0  0  0  0  0  0  0
    0.0249   -0.0522   -0.9740 C   0  0  0  0  0  0  0  0  0  0  0  0
   -0.0214   -1.5985   -0.9029 C   0  0  0  0  0  0  0  0  0  0  0  0
    0.4767   -2.2502   -1.8386 O   0  0  0  0  0  0  0  0  0  0  0  0
   -0.5920   -2.0951    0.1031 O   0  0  0  0  0  0  0  0  0  0  0  0
   -0.0451   -0.4613    2.9215 H   0  0  0  0  0  0  0  0  0  0  0  0
   -0.6620    0.7092    1.8962 H   0  0  0  0  0  0  0  0  0  0  0  0
    1.7815    0.7417    1.9318 H   0  0  0  0  0  0  0  0  0  0  0  0
    1.7237   -0.9158    1.3095 H   0  0  0  0  0  0  0  0  0  0  0  0
    2.0826    0.4406   -0.5921 H   0  0  0  0  0  0  0  0  0  0  0  0
    0.9260    1.6672   -0.0803 H   0  0  0  0  0  0  0  0  0  0  0  0
   -0.9623    0.3097   -0.6788 H   0  0  0  0  0  0  0  0  0  0  0  0
    0.1893    0.2180   -2.0188 H   0  0  0  0  0  0  0  0  0  0  0  0
   -0.5847   -0.9090    1.3517 H   0  0  0  0  0  0  0  0  0  0  0  0
    3.7223   -1.7898    2.5295 O   0  0  0  0  0  0  0  0  0  0  0  0
    4.6111   -1.5805    2.2299 H   0  0  0  0  0  0  0  0  0  0  0  0
    3.6447   -2.7575    2.4854 H   0  0  0  0  0  0  0  0  0  0  0  0
    2.6448   -0.3397    4.6784 O   0  0  0  0  0  0  0  0  0  0  0  0
    3.0327   -0.8692    3.9595 H   0  0  0  0  0  0  0  0  0  0  0  0
    2.5977    0.5716    4.3308 H   0  0  0  0  0  0  0  0  0  0  0  0
    3.4773   -4.5815    2.2807 O   0  0  0  0  0  0  0  0  0  0  0  0
    2.9228   -4.8568    1.5449 H   0  0  0  0  0  0  0  0  0  0  0  0
    3.3074   -5.1864    3.0104 H   0  0  0  0  0  0  0  0  0  0  0  0
   -0.6482   -3.3221    5.3227 O   0  0  0  0  0  0  0  0  0  0  0  0
   -0.0524   -3.8174    5.8929 H   0  0  0  0  0  0  0  0  0  0  0  0
   -0.9234   -3.9079    4.6109 H   0  0  0  0  0  0  0  0  0  0  0  0
    2.0707    2.1740    3.6243 O   0  0  0  0  0  0  0  0  0  0  0  0
    1.1003    2.1773    3.7602 H   0  0  0  0  0  0  0  0  0  0  0  0
    2.3952    3.0243    3.9290 H   0  0  0  0  0  0  0  0  0  0  0  0
   -0.6475    1.9363    4.0671 O   0  0  0  0  0  0  0  0  0  0  0  0
   -1.1327    2.4320    4.7306 H   0  0  0  0  0  0  0  0  0  0  0  0
   -0.5678    1.0246    4.4040 H   0  0  0  0  0  0  0  0  0  0  0  0
   -0.0010   -0.6994    4.5702 O   0  0  0  0  0  0  0  0  0  0  0  0
    0.9723   -0.6409    4.7308 H   0  0  0  0  0  0  0  0  0  0  0  0
   -0.2880   -1.5698    4.8873 H   0  0  0  0  0  0  0  0  0  0  0  0
  1  2  1  0  0  0  0
  2  3  1  0  0  0  0
  3  4  1  0  0  0  0
  4  5  1  0  0  0  0
  5  6  2  0  0  0  0
  5  7  4  0  0  0  0
  1  8  1  0  0  0  0
  1  9  1  0  0  0  0
  2 10  1  0  0  0  0
  2 11  1  0  0  0  0
  3 12  1  0  0  0  0
  3 13  1  0  0  0  0
  4 14  1  0  0  0  0
  4 15  1  0  0  0  0
  1 16  1  0  0  0  0
 17 18  1  0  0  0  0
 17 19  1  0  0  0  0
 20 21  1  0  0  0  0
 20 22  1  0  0  0  0
 23 24  1  0  0  0  0
 23 25  1  0  0  0  0
 26 27  1  0  0  0  0
 26 28  1  0  0  0  0
 29 30  1  0  0  0  0
 29 31  1  0  0  0  0
 32 33  1  0  0  0  0
 32 34  1  0  0  0  0
 35 36  1  0  0  0  0
 35 37  1  0  0  0  0
M  END
