 xtb: 6.7.1 (edcfbbe)
          06092518043D

 37 29  0     0  0            999 V2000
   -0.5687   -0.8941    1.9387 N   0  0  0  0  0  0  0  0  0  0  0  0
    0.4757   -0.1475    1.2127 C   0  0  0  0  0  0  0  0  0  0  0  0
   -0.1310    0.8850    0.2680 C   0  0  0  0  0  0  0  0  0  0  0  0
   -0.8500    0.2679   -0.9369 C   0  0  0  0  0  0  0  0  0  0  0  0
    0.1344   -0.4914   -1.8524 C   0  0  0  0  0  0  0  0  0  0  0  0
    0.7558    0.1637   -2.7112 O   0  0  0  0  0  0  0  0  0  0  0  0
    0.2620   -1.7313   -1.6684 O   0  0  0  0  0  0  0  0  0  0  0  0
   -0.1551   -1.3845    2.7594 H   0  0  0  0  0  0  0  0  0  0  0  0
   -1.2920   -0.2245    2.2839 H   0  0  0  0  0  0  0  0  0  0  0  0
    1.1021    0.3647    1.9440 H   0  0  0  0  0  0  0  0  0  0  0  0
    1.0920   -0.8405    0.6377 H   0  0  0  0  0  0  0  0  0  0  0  0
    0.6654    1.5286   -0.1110 H   0  0  0  0  0  0  0  0  0  0  0  0
   -0.8431    1.5024    0.8182 H   0  0  0  0  0  0  0  0  0  0  0  0
   -1.6374   -0.4147   -0.6200 H   0  0  0  0  0  0  0  0  0  0  0  0
   -1.2911    1.0643   -1.5393 H   0  0  0  0  0  0  0  0  0  0  0  0
   -1.0094   -1.5994    1.3184 H   0  0  0  0  0  0  0  0  0  0  0  0
   -2.3241    0.9614    2.9786 O   0  0  0  0  0  0  0  0  0  0  0  0
   -3.1260    0.6391    3.3996 H   0  0  0  0  0  0  0  0  0  0  0  0
   -1.7916    1.3934    3.6699 H   0  0  0  0  0  0  0  0  0  0  0  0
    0.2873    3.9939   -6.2081 O   0  0  0  0  0  0  0  0  0  0  0  0
    0.5149    3.0726   -6.3665 H   0  0  0  0  0  0  0  0  0  0  0  0
    0.1055    4.0751   -5.2665 H   0  0  0  0  0  0  0  0  0  0  0  0
   -0.7166    2.2275    4.9193 O   0  0  0  0  0  0  0  0  0  0  0  0
   -0.9957    2.1170    5.8347 H   0  0  0  0  0  0  0  0  0  0  0  0
   -0.6354    3.1722    4.7547 H   0  0  0  0  0  0  0  0  0  0  0  0
   -1.1413   -2.6879    6.2246 O   0  0  0  0  0  0  0  0  0  0  0  0
   -0.4823   -2.4205    5.5584 H   0  0  0  0  0  0  0  0  0  0  0  0
   -1.7632   -3.2583    5.7637 H   0  0  0  0  0  0  0  0  0  0  0  0
    0.6848   -1.9143    4.1954 O   0  0  0  0  0  0  0  0  0  0  0  0
    1.0512   -1.0141    4.3307 H   0  0  0  0  0  0  0  0  0  0  0  0
    1.4354   -2.4955    4.0454 H   0  0  0  0  0  0  0  0  0  0  0  0
    1.5302    0.6648    4.2638 O   0  0  0  0  0  0  0  0  0  0  0  0
    0.7440    1.2084    4.4513 H   0  0  0  0  0  0  0  0  0  0  0  0
    2.2547    1.0307    4.7773 H   0  0  0  0  0  0  0  0  0  0  0  0
   -1.3534   -2.8646    0.1339 O   0  0  0  0  0  0  0  0  0  0  0  0
   -0.7782   -2.5099   -0.5861 H   0  0  0  0  0  0  0  0  0  0  0  0
   -1.1145   -3.7901    0.2356 H   0  0  0  0  0  0  0  0  0  0  0  0
  1  2  1  0  0  0  0
  2  3  1  0  0  0  0
  3  4  1  0  0  0  0
  4  5  1  0  0  0  0
  5  6  2  0  0  0  0
  5  7  4  0  0  0  0
  1  8  1  0  0  0  0
  1  9  1  0  0  0  0
  2 10  1  0  0  0  0
  2 11  1  0  0  0  0
  3 12  1  0  0  0  0
  3 13  1  0  0  0  0
  4 14  1  0  0  0  0
  4 15  1  0  0  0  0
  1 16  1  0  0  0  0
 17 18  1  0  0  0  0
 17 19  1  0  0  0  0
 20 21  1  0  0  0  0
 20 22  1  0  0  0  0
 23 24  1  0  0  0  0
 23 25  1  0  0  0  0
 26 27  1  0  0  0  0
 26 28  1  0  0  0  0
 29 30  1  0  0  0  0
 29 31  1  0  0  0  0
 32 33  1  0  0  0  0
 32 34  1  0  0  0  0
 35 36  1  0  0  0  0
 35 37  1  0  0  0  0
M  END
