46
Coordinates from ORCA-job input
  N          -0.26962002697755      0.47626769171231      1.69137862373958
  C          -0.17749510091921     -0.17098418593001      0.34793297174487
  C           0.24444897975697      0.86296309814586     -0.67969403777542
  C           0.26833663843403      0.33963694615641     -2.10554226001904
  C           0.60988569039317      1.40737690039276     -3.13677780714602
  O           0.90238554556431      2.57568156704285     -2.74319083730841
  O           0.55416788861942      1.08125857472585     -4.35426781427816
  H           0.59088337778526      1.01504423303518      1.89377210315546
  H          -1.05505615346798      1.15848454471389      1.70686726307364
  H          -1.15627491527501     -0.59401894527399      0.12225737401488
  H           0.54259963114454     -0.98565004636679      0.42081723234402
  H           1.23589268451361      1.22854755416590     -0.41463738538055
  H          -0.43693078424594      1.71368938218919     -0.62202037130997
  H          -0.70192834284171     -0.07908934176482     -2.38791188366650
  H           0.99218054584855     -0.47283507567390     -2.22018369076095
  H          -0.41596698541576     -0.22663878628008      2.43510587384407
  O          -0.61519413519474     -1.56888722007810      3.68564780454062
  H          -0.42487723741872     -2.44218015985972      3.31802927539084
  H          -1.51963859833418     -1.63049345356621      4.02063463508899
  O           2.86344383022944      2.00985298467437     -5.78816125902855
  H           2.70369592938562      2.93934855849904     -5.54323071287631
  H           2.11054940228984      1.55897055623949     -5.36483241063983
  O           1.74277225930573      4.43322836847269     -4.68936774659079
  H           0.94823702378689      4.31522185218705     -5.24107818572254
  H           1.54611594734130      3.83982539826330     -3.93400362413633
  O          -0.09515402885173     -1.48222648251037     -5.15387078264662
  H           0.11089647247594     -0.57722148871292     -4.83169958116007
  H          -0.71107870046862     -1.84297892566780     -4.50585655336667
  O           1.92465678660384      2.34466546865062      1.96888220315596
  H           1.85689919194862      2.88699398454363      1.15517504165603
  H           2.82032904180828      1.98511032497801      1.96421558108718
  O          -1.26425123457014      4.45090484802132      0.02647025633042
  H          -1.53905699331250      4.36946773192015     -0.90739961784469
  H          -0.29430360051071      4.32487414676134     -0.00845862719029
  O           1.47039912877955      3.85430492174050     -0.36666163842709
  H           2.05353668061484      4.59187114271685     -0.58571996083165
  H           1.33900245587765      3.34558986140362     -1.20101854116928
  O          -1.61859566305789      3.91193488917535     -2.78060354211017
  H          -2.24894775875151      3.17895808643736     -2.76921491686026
  H          -0.73811885395139      3.48600838102012     -2.75438857775202
  O          -0.69687982150116      3.27220882448962     -5.72298511907640
  H          -1.25735952648063      3.61518928473583     -5.01059465801496
  H          -0.28452350770932      2.47246599200542     -5.33709379294429
  O          -2.33878939042019      2.40042411444902      1.49169457202030
  H          -2.64838699703865      2.77238261492912      2.32642731876426
  H          -1.97368278299220      3.16043603358996      0.97565440208324
