 xtb: 6.7.1 (edcfbbe)
          06092518033D

 37 29  0     0  0            999 V2000
    1.5902    1.0363    0.0066 N   0  0  0  0  0  0  0  0  0  0  0  0
    0.5907    0.0194   -0.3694 C   0  0  0  0  0  0  0  0  0  0  0  0
   -0.4084    0.5994   -1.3646 C   0  0  0  0  0  0  0  0  0  0  0  0
   -1.2729   -0.4912   -1.9911 C   0  0  0  0  0  0  0  0  0  0  0  0
   -0.4919   -1.4604   -2.8991 C   0  0  0  0  0  0  0  0  0  0  0  0
   -0.8351   -2.6549   -2.9121 O   0  0  0  0  0  0  0  0  0  0  0  0
    0.4512   -0.9902   -3.5934 O   0  0  0  0  0  0  0  0  0  0  0  0
    2.2648    1.2148   -0.8055 H   0  0  0  0  0  0  0  0  0  0  0  0
    1.1507    1.9404    0.2111 H   0  0  0  0  0  0  0  0  0  0  0  0
    0.0602   -0.3379    0.5144 H   0  0  0  0  0  0  0  0  0  0  0  0
    1.1044   -0.8278   -0.8268 H   0  0  0  0  0  0  0  0  0  0  0  0
    0.1235    1.1115   -2.1635 H   0  0  0  0  0  0  0  0  0  0  0  0
   -1.0593    1.3215   -0.8709 H   0  0  0  0  0  0  0  0  0  0  0  0
   -1.7761   -1.0983   -1.2357 H   0  0  0  0  0  0  0  0  0  0  0  0
   -2.0420   -0.0400   -2.6234 H   0  0  0  0  0  0  0  0  0  0  0  0
    2.1428    0.7334    0.8099 H   0  0  0  0  0  0  0  0  0  0  0  0
    2.7587   -2.3745   -3.6507 O   0  0  0  0  0  0  0  0  0  0  0  0
    1.8926   -1.9128   -3.7060 H   0  0  0  0  0  0  0  0  0  0  0  0
    2.5623   -3.3138   -3.7157 H   0  0  0  0  0  0  0  0  0  0  0  0
    4.3479   -1.0215   -1.8521 O   0  0  0  0  0  0  0  0  0  0  0  0
    5.2500   -1.3015   -2.0384 H   0  0  0  0  0  0  0  0  0  0  0  0
    3.7793   -1.5139   -2.4738 H   0  0  0  0  0  0  0  0  0  0  0  0
    3.3411    1.5127   -1.9569 O   0  0  0  0  0  0  0  0  0  0  0  0
    3.8350    0.6690   -1.9395 H   0  0  0  0  0  0  0  0  0  0  0  0
    2.8194    1.4935   -2.7836 H   0  0  0  0  0  0  0  0  0  0  0  0
    0.3978    3.6237   -2.8779 O   0  0  0  0  0  0  0  0  0  0  0  0
    0.9400    3.7135   -2.0675 H   0  0  0  0  0  0  0  0  0  0  0  0
    0.8247    2.9190   -3.3930 H   0  0  0  0  0  0  0  0  0  0  0  0
    0.1485    6.0011   -4.2746 O   0  0  0  0  0  0  0  0  0  0  0  0
    0.2379    5.1764   -3.7521 H   0  0  0  0  0  0  0  0  0  0  0  0
   -0.6599    5.8949   -4.7847 H   0  0  0  0  0  0  0  0  0  0  0  0
    2.1243    3.7554   -0.7070 O   0  0  0  0  0  0  0  0  0  0  0  0
    2.8348    3.2579   -1.1411 H   0  0  0  0  0  0  0  0  0  0  0  0
    2.4612    4.6374   -0.5366 H   0  0  0  0  0  0  0  0  0  0  0  0
    1.6594    1.3796   -4.1082 O   0  0  0  0  0  0  0  0  0  0  0  0
    1.1882    0.5354   -3.9434 H   0  0  0  0  0  0  0  0  0  0  0  0
    1.9392    1.3564   -5.0267 H   0  0  0  0  0  0  0  0  0  0  0  0
  1  2  1  0  0  0  0
  2  3  1  0  0  0  0
  3  4  1  0  0  0  0
  4  5  1  0  0  0  0
  5  6  2  0  0  0  0
  5  7  4  0  0  0  0
  1  8  1  0  0  0  0
  1  9  1  0  0  0  0
  2 10  1  0  0  0  0
  2 11  1  0  0  0  0
  3 12  1  0  0  0  0
  3 13  1  0  0  0  0
  4 14  1  0  0  0  0
  4 15  1  0  0  0  0
  1 16  1  0  0  0  0
 17 18  1  0  0  0  0
 17 19  1  0  0  0  0
 20 21  1  0  0  0  0
 20 22  1  0  0  0  0
 23 24  1  0  0  0  0
 23 25  1  0  0  0  0
 26 27  1  0  0  0  0
 26 28  1  0  0  0  0
 29 30  1  0  0  0  0
 29 31  1  0  0  0  0
 32 33  1  0  0  0  0
 32 34  1  0  0  0  0
 35 36  1  0  0  0  0
 35 37  1  0  0  0  0
M  END
