          37
  Built with Packmol                                             
  N            0.002605        0.268339        2.349498
  C            0.005610       -0.534268        1.127824
  C           -0.013605        0.360442       -0.117570
  C           -0.006580       -0.484114       -1.399583
  C            0.005309        0.346063       -2.655593
  O            0.015980        1.566588       -2.611145
  O            0.010136       -0.270580       -3.851920
  H            0.843830        0.889238        2.373417
  H           -0.867625        0.846216        2.397033
  H           -0.885896       -1.198618        1.124039
  H            0.917756       -1.170846        1.111005
  H            0.882890        1.016132       -0.103939
  H           -0.924881        0.997831       -0.099780
  H           -0.910028       -1.129127       -1.413513
  H            0.894287       -1.134110       -1.406828
  H            0.030211       -0.369186        3.177055
  O            0.432985       -3.244553        2.576020
  H           -0.553599       -3.182670        2.517425
  H            0.687785       -3.852316        1.836889
  O           -2.788555       -3.663410        0.845534
  H           -2.744657       -2.822496        1.366637
  H           -2.035553       -4.207428        1.188528
  O           -1.779749        3.367619        2.530452
  H           -2.412026        3.187848        3.271073
  H           -2.097356        4.217611        2.133901
  O           -2.406167       -3.545212       -3.412498
  H           -3.163674       -2.981079       -3.710068
  H           -1.651456       -3.273641       -3.993252
  O           -1.075963       -3.358750       -1.671178
  H           -0.603922       -4.038121       -2.215460
  H           -1.142411       -3.764884       -0.770483
  O            0.421260        3.526683        0.875764
  H           -0.223940        2.781732        0.972589
  H            0.084451        4.047888        0.104066
  O           -1.624836       -3.559865        5.067125
  H           -1.614541       -2.570653        5.022807
  H           -2.251592       -3.833785        4.351054
