 xtb: 6.7.1 (edcfbbe)
          06092518063D

 37 29  0     0  0            999 V2000
   -0.2974    0.7693    0.9032 N   0  0  0  0  0  0  0  0  0  0  0  0
    0.8684    0.7709   -0.0086 C   0  0  0  0  0  0  0  0  0  0  0  0
    0.4394    0.9798   -1.4588 C   0  0  0  0  0  0  0  0  0  0  0  0
   -0.8190    0.2024   -1.8766 C   0  0  0  0  0  0  0  0  0  0  0  0
   -0.8376   -1.2626   -1.3965 C   0  0  0  0  0  0  0  0  0  0  0  0
   -0.5278   -2.1651   -2.1982 O   0  0  0  0  0  0  0  0  0  0  0  0
   -1.1894   -1.4593   -0.2026 O   0  0  0  0  0  0  0  0  0  0  0  0
    0.0074    0.6931    1.8745 H   0  0  0  0  0  0  0  0  0  0  0  0
   -0.8571    1.6144    0.7777 H   0  0  0  0  0  0  0  0  0  0  0  0
    1.5623    1.5638    0.2720 H   0  0  0  0  0  0  0  0  0  0  0  0
    1.3733   -0.1894    0.0955 H   0  0  0  0  0  0  0  0  0  0  0  0
    1.2683    0.6762   -2.0963 H   0  0  0  0  0  0  0  0  0  0  0  0
    0.2532    2.0390   -1.6412 H   0  0  0  0  0  0  0  0  0  0  0  0
   -1.7186    0.6779   -1.4795 H   0  0  0  0  0  0  0  0  0  0  0  0
   -0.8889    0.1964   -2.9648 H   0  0  0  0  0  0  0  0  0  0  0  0
   -0.8612   -0.0961    0.6365 H   0  0  0  0  0  0  0  0  0  0  0  0
    3.2440    2.1845   -5.0370 O   0  0  0  0  0  0  0  0  0  0  0  0
    2.5136    2.2350   -5.6612 H   0  0  0  0  0  0  0  0  0  0  0  0
    3.3794    3.0673   -4.6766 H   0  0  0  0  0  0  0  0  0  0  0  0
    3.1075   -4.0253    0.4837 O   0  0  0  0  0  0  0  0  0  0  0  0
    2.3032   -4.4395    0.8124 H   0  0  0  0  0  0  0  0  0  0  0  0
    3.2122   -4.3008   -0.4322 H   0  0  0  0  0  0  0  0  0  0  0  0
    0.9234   -1.2886   -4.4045 O   0  0  0  0  0  0  0  0  0  0  0  0
    1.7219   -0.9251   -3.9816 H   0  0  0  0  0  0  0  0  0  0  0  0
    0.4058   -1.6868   -3.6784 H   0  0  0  0  0  0  0  0  0  0  0  0
    4.2415    0.6501   -0.8152 O   0  0  0  0  0  0  0  0  0  0  0  0
    3.8624    0.4287   -1.6834 H   0  0  0  0  0  0  0  0  0  0  0  0
    3.9435   -0.0555   -0.2130 H   0  0  0  0  0  0  0  0  0  0  0  0
    3.3256   -1.2839    1.0103 O   0  0  0  0  0  0  0  0  0  0  0  0
    3.2893   -2.2303    0.7885 H   0  0  0  0  0  0  0  0  0  0  0  0
    3.7630   -1.2312    1.8661 H   0  0  0  0  0  0  0  0  0  0  0  0
    3.2730    2.9275    0.3933 O   0  0  0  0  0  0  0  0  0  0  0  0
    3.9260    3.2218    1.0335 H   0  0  0  0  0  0  0  0  0  0  0  0
    3.6925    2.1915   -0.0975 H   0  0  0  0  0  0  0  0  0  0  0  0
    3.3096   -0.0419   -3.3995 O   0  0  0  0  0  0  0  0  0  0  0  0
    4.0215   -0.5876   -3.7502 H   0  0  0  0  0  0  0  0  0  0  0  0
    3.2929    0.7567   -3.9637 H   0  0  0  0  0  0  0  0  0  0  0  0
  1  2  1  0  0  0  0
  2  3  1  0  0  0  0
  3  4  1  0  0  0  0
  4  5  1  0  0  0  0
  5  6  2  0  0  0  0
  5  7  4  0  0  0  0
  1  8  1  0  0  0  0
  1  9  1  0  0  0  0
  2 10  1  0  0  0  0
  2 11  1  0  0  0  0
  3 12  1  0  0  0  0
  3 13  1  0  0  0  0
  4 14  1  0  0  0  0
  4 15  1  0  0  0  0
  1 16  1  0  0  0  0
 17 18  1  0  0  0  0
 17 19  1  0  0  0  0
 20 21  1  0  0  0  0
 20 22  1  0  0  0  0
 23 24  1  0  0  0  0
 23 25  1  0  0  0  0
 26 27  1  0  0  0  0
 26 28  1  0  0  0  0
 29 30  1  0  0  0  0
 29 31  1  0  0  0  0
 32 33  1  0  0  0  0
 32 34  1  0  0  0  0
 35 36  1  0  0  0  0
 35 37  1  0  0  0  0
M  END
