          34
  Built with Packmol                                             
  H            1.420531       -0.693439       -0.457594
  C            0.315625       -0.640915       -0.572756
  H            0.379447        0.341256       -2.375102
  H           -0.020204       -1.577267       -1.069783
  N           -0.042833        0.489322       -1.430827
  H           -0.104344       -1.525775        1.342275
  C           -0.356072       -0.581772        0.809877
  O           -0.155039        1.845644        1.277794
  C            0.099005        0.578296        1.654298
  H            0.334594        1.383914       -1.050468
  O            0.669992        0.373338        2.712012
  H           -1.081518        0.548347       -1.533033
  H           -1.459185       -0.540948        0.693308
  O            1.306420       -2.553613       -3.490572
  H            1.922675       -3.306074       -3.676697
  H            0.693364       -2.536874       -4.268065
  O           -2.361226        2.314437       -4.007745
  H           -2.050103        3.252833       -4.064541
  H           -1.630938        1.838967       -3.537404
  O           -2.034189       -2.583674       -5.256162
  H           -1.274028       -3.178261       -5.034279
  H           -2.742707       -2.835897       -4.611957
  O           -3.068704        0.588639       -2.443814
  H           -3.715348        0.355065       -1.731139
  H           -3.619398        0.664634       -3.263310
  O           -0.064744        1.703272       -5.144991
  H            0.211660        1.056267       -4.448144
  H           -0.833514        1.270318       -5.594609
  O           -1.178752       -3.918247       -1.897574
  H           -1.986255       -3.376485       -1.710376
  H           -1.146192       -3.981929       -2.885247
  O           -2.126476       -0.774809       -4.001329
  H           -1.374417       -0.346593       -3.520029
  H           -2.245346       -0.224298       -4.815835
