 xtb: 6.7.1 (edcfbbe)
          06092517593D

 34 26  0     0  0            999 V2000
    0.9218   -1.0270   -0.6717 H   0  0  0  0  0  0  0  0  0  0  0  0
   -0.1627   -0.9515   -0.5804 C   0  0  0  0  0  0  0  0  0  0  0  0
   -0.2077    0.1975   -2.3675 H   0  0  0  0  0  0  0  0  0  0  0  0
   -0.6160   -1.8870   -0.9121 H   0  0  0  0  0  0  0  0  0  0  0  0
   -0.6299    0.1741   -1.4064 N   0  0  0  0  0  0  0  0  0  0  0  0
   -0.1771   -1.5083    1.5184 H   0  0  0  0  0  0  0  0  0  0  0  0
   -0.5131   -0.6906    0.8825 C   0  0  0  0  0  0  0  0  0  0  0  0
    0.1549    1.6112    0.6692 O   0  0  0  0  0  0  0  0  0  0  0  0
    0.1135    0.6172    1.4395 C   0  0  0  0  0  0  0  0  0  0  0  0
   -0.3553    1.0221   -0.8558 H   0  0  0  0  0  0  0  0  0  0  0  0
    0.5120    0.6057    2.6181 O   0  0  0  0  0  0  0  0  0  0  0  0
   -1.6551    0.1774   -1.5284 H   0  0  0  0  0  0  0  0  0  0  0  0
   -1.5940   -0.5933    1.0038 H   0  0  0  0  0  0  0  0  0  0  0  0
    2.3068   -1.1055   -4.8506 O   0  0  0  0  0  0  0  0  0  0  0  0
    3.2086   -0.8357   -4.6564 H   0  0  0  0  0  0  0  0  0  0  0  0
    2.2766   -2.0664   -4.8075 H   0  0  0  0  0  0  0  0  0  0  0  0
   -1.3755    2.6878   -3.3495 O   0  0  0  0  0  0  0  0  0  0  0  0
   -0.9182    3.2394   -2.7102 H   0  0  0  0  0  0  0  0  0  0  0  0
   -0.7125    2.0683   -3.7033 H   0  0  0  0  0  0  0  0  0  0  0  0
   -2.9077   -3.0764   -5.7820 O   0  0  0  0  0  0  0  0  0  0  0  0
   -2.0482   -3.5034   -5.8438 H   0  0  0  0  0  0  0  0  0  0  0  0
   -2.7387   -2.1959   -5.3991 H   0  0  0  0  0  0  0  0  0  0  0  0
   -3.1327    0.8041   -2.4974 O   0  0  0  0  0  0  0  0  0  0  0  0
   -3.9844    1.1310   -2.2009 H   0  0  0  0  0  0  0  0  0  0  0  0
   -2.6116    1.5831   -2.7972 H   0  0  0  0  0  0  0  0  0  0  0  0
    0.0988    0.3986   -4.0078 O   0  0  0  0  0  0  0  0  0  0  0  0
    0.8730   -0.0569   -4.3730 H   0  0  0  0  0  0  0  0  0  0  0  0
   -0.6923   -0.0317   -4.3959 H   0  0  0  0  0  0  0  0  0  0  0  0
   -1.4826   -3.9387   -1.1800 O   0  0  0  0  0  0  0  0  0  0  0  0
   -2.4217   -4.1274   -1.2681 H   0  0  0  0  0  0  0  0  0  0  0  0
   -1.0269   -4.7831   -1.1259 H   0  0  0  0  0  0  0  0  0  0  0  0
   -2.3697   -0.4748   -4.8157 O   0  0  0  0  0  0  0  0  0  0  0  0
   -2.7553   -0.1748   -3.9672 H   0  0  0  0  0  0  0  0  0  0  0  0
   -2.6953    0.1382   -5.4815 H   0  0  0  0  0  0  0  0  0  0  0  0
  1  2  1  0  0  0  0
  2  4  1  0  0  0  0
  2  5  1  0  0  0  0
  3  5  1  0  0  0  0
  2  7  1  0  0  0  0
  6  7  1  0  0  0  0
  7  9  1  0  0  0  0
  8  9  4  0  0  0  0
  5 10  1  0  0  0  0
  9 11  2  0  0  0  0
  5 12  1  0  0  0  0
  7 13  1  0  0  0  0
 14 15  1  0  0  0  0
 14 16  1  0  0  0  0
 17 18  1  0  0  0  0
 17 19  1  0  0  0  0
 20 21  1  0  0  0  0
 20 22  1  0  0  0  0
 23 24  1  0  0  0  0
 23 25  1  0  0  0  0
 26 27  1  0  0  0  0
 26 28  1  0  0  0  0
 29 30  1  0  0  0  0
 29 31  1  0  0  0  0
 32 33  1  0  0  0  0
 32 34  1  0  0  0  0
M  END
