 xtb: 6.7.1 (edcfbbe)
          06102511293D

 28 23  0     0  0            999 V2000
    1.1246   -0.0654    0.7965 N   0  0  0  0  0  0  0  0  0  0  0  0
    2.1613   -0.0038   -0.2533 C   0  0  0  0  0  0  0  0  0  0  0  0
    1.7323    0.9700   -1.3488 C   0  0  0  0  0  0  0  0  0  0  0  0
    2.9237    1.4631   -2.1625 C   0  0  0  0  0  0  0  0  0  0  0  0
    3.8308    2.4545   -1.4164 C   0  0  0  0  0  0  0  0  0  0  0  0
    3.5351    2.7973   -0.2456 O   0  0  0  0  0  0  0  0  0  0  0  0
    4.8385    2.8804   -2.0243 O   0  0  0  0  0  0  0  0  0  0  0  0
    1.0801    0.8802    1.2415 H   0  0  0  0  0  0  0  0  0  0  0  0
    0.1974   -0.2814    0.3708 H   0  0  0  0  0  0  0  0  0  0  0  0
    2.3249   -0.9940   -0.6771 H   0  0  0  0  0  0  0  0  0  0  0  0
    3.0943    0.3509    0.1866 H   0  0  0  0  0  0  0  0  0  0  0  0
    1.2582    1.8400   -0.8940 H   0  0  0  0  0  0  0  0  0  0  0  0
    1.0145    0.4941   -2.0157 H   0  0  0  0  0  0  0  0  0  0  0  0
    3.5581    0.6371   -2.4916 H   0  0  0  0  0  0  0  0  0  0  0  0
    2.5934    1.9824   -3.0650 H   0  0  0  0  0  0  0  0  0  0  0  0
    1.3519   -0.7654    1.5034 H   0  0  0  0  0  0  0  0  0  0  0  0
    1.4855    2.5133    1.6278 O   0  0  0  0  0  0  0  0  0  0  0  0
    2.1986    2.7101    0.9938 H   0  0  0  0  0  0  0  0  0  0  0  0
    1.7698    2.8679    2.4751 H   0  0  0  0  0  0  0  0  0  0  0  0
   -1.3034   -0.6298   -0.4087 O   0  0  0  0  0  0  0  0  0  0  0  0
   -2.0450   -0.0256   -0.3311 H   0  0  0  0  0  0  0  0  0  0  0  0
   -1.6557   -1.5126   -0.5419 H   0  0  0  0  0  0  0  0  0  0  0  0
    5.0897    2.3502   -4.6909 O   0  0  0  0  0  0  0  0  0  0  0  0
    5.9644    2.6419   -4.9625 H   0  0  0  0  0  0  0  0  0  0  0  0
    5.0269    2.5575   -3.7323 H   0  0  0  0  0  0  0  0  0  0  0  0
    5.3905    4.5984    0.6813 O   0  0  0  0  0  0  0  0  0  0  0  0
    5.9682    4.7443   -0.0734 H   0  0  0  0  0  0  0  0  0  0  0  0
    4.7225    3.9507    0.3633 H   0  0  0  0  0  0  0  0  0  0  0  0
  1  2  1  0  0  0  0
  2  3  1  0  0  0  0
  3  4  1  0  0  0  0
  4  5  1  0  0  0  0
  5  6  4  0  0  0  0
  5  7  4  0  0  0  0
  1  8  1  0  0  0  0
  1  9  1  0  0  0  0
  2 10  1  0  0  0  0
  2 11  1  0  0  0  0
  3 12  1  0  0  0  0
  3 13  1  0  0  0  0
  4 14  1  0  0  0  0
  4 15  1  0  0  0  0
  1 16  1  0  0  0  0
 17 18  1  0  0  0  0
 17 19  1  0  0  0  0
 20 21  1  0  0  0  0
 20 22  1  0  0  0  0
 23 24  1  0  0  0  0
 23 25  1  0  0  0  0
 26 27  1  0  0  0  0
 26 28  1  0  0  0  0
M  END
