         166
  Built with Packmol                                             
  N            0.064952       -0.170366        2.240690
  C           -0.425087       -0.283877        0.868279
  C            0.367730        0.641149       -0.071166
  C           -0.134429        0.597594       -1.523145
  C            0.096668       -0.713488       -2.230733
  O            0.727246       -1.739965       -1.628533
  O           -0.270635       -0.838959       -3.387000
  H            1.072330       -0.447205        2.286531
  H           -0.048728        0.810713        2.583748
  H           -1.501047       -0.002735        0.840683
  H           -0.338388       -1.340879        0.545678
  H            1.449826        0.389794       -0.041707
  H            0.245710        1.683089        0.295720
  H           -1.217927        0.840241       -1.535888
  H            0.400055        1.383318       -2.098747
  H           -0.488277       -0.808425        2.855591
  O            3.870307       -1.972902        3.715816
  H            2.923912       -2.181206        3.919667
  H            3.931194       -0.988076        3.799621
  O           -3.196201        2.793836        3.831622
  H           -2.418233        2.181197        3.824489
  H           -3.983512        2.195719        3.776750
  O            3.795758       -0.668508       -1.046898
  H            3.822906       -1.651300       -1.165196
  H            3.844047       -0.306401       -1.967311
  O            3.810047        1.115388        0.340554
  H            3.428267        0.267651        0.681430
  H            3.893549        1.690110        1.142636
  O            1.377771       -3.987683        3.042562
  H            1.807141       -3.831649        3.921144
  H            0.415774       -4.094107        3.251964
  O            3.614503       -3.771345       -3.789517
  H            2.624769       -3.793333       -3.813045
  H            3.842551       -3.886577       -2.832789
  O            1.587482        3.231233       -0.448107
  H            1.273147        3.789289        0.307126
  H            1.952533        3.880161       -1.100981
  O           -2.171487       -0.627545       -2.832845
  H           -1.951058       -1.560356       -2.584077
  H           -2.225595       -0.640624       -3.821538
  O           -2.400596       -3.800737        2.997390
  H           -1.828996       -3.912594        2.196533
  H           -1.776674       -3.886972        3.761523
  O           -0.269625       -3.239315        1.157871
  H           -0.251110       -2.705045        1.991431
  H            0.463386       -3.895999        1.267752
  O           -0.386973        1.535919       -3.925156
  H            0.386424        0.926556       -4.030718
  H           -1.093665        0.972152       -3.520970
  O            2.202083       -3.526154       -1.754123
  H            1.401284       -3.858231       -2.232720
  H            2.406981       -2.658675       -2.185528
  O           -2.696862       -2.189412        1.650943
  H           -2.298288       -1.832411        0.817696
  H           -2.054935       -1.936411        2.361248
  O            2.022461       -0.751469       -2.780560
  H            1.917706        0.101516       -2.288571
  H            1.682742       -0.556615       -3.690085
  O           -1.642477        3.804395        0.569283
  H           -0.696291        3.540771        0.443406
  H           -2.013146        3.844003       -0.348131
  O           -2.457814       -3.185454       -3.790933
  H           -1.701855       -3.824026       -3.754023
  H           -3.265767       -3.757889       -3.802958
  O           -3.877074        0.993305       -1.295171
  H           -3.144340        1.160389       -1.939994
  H           -3.425965        0.940619       -0.415206
  O           -3.382020       -2.262357        3.815597
  H           -4.013945       -3.023770        3.854723
  H           -3.825128       -1.602277        3.225205
  O           -2.087542        1.894951        1.018755
  H           -1.732166        1.867270        0.094876
  H           -1.287031        2.015957        1.588976
  O            2.879277        3.963862        3.900349
  H            3.846223        3.788812        3.777940
  H            2.455792        3.070809        3.839276
  O            0.515252        2.622840        3.892658
  H           -0.434743        2.377636        3.758513
  H            0.530993        3.609452        3.809226
  O            1.369403        0.333497        4.080067
  H            1.876508        1.163750        3.895308
  H            2.043488       -0.388882        4.013805
  O            0.408533       -1.960334        4.204417
  H            0.996199       -2.076133        3.415841
  H           -0.422600       -2.443801        3.967582
  O           -2.421943       -3.668392       -0.985101
  H           -2.360862       -2.680019       -0.985473
  H           -2.580335       -3.907532       -1.932908
  O           -0.477932       -3.282168       -1.244786
  H            0.123715       -3.850096       -0.700645
  H           -0.591790       -3.781966       -2.092047
  O            2.758590        1.608016       -1.282098
  H            3.700833        1.643989       -1.584579
  H            2.256744        2.108578       -1.973619
  O            3.909524        3.889991       -0.721601
  H            3.570233        3.100633       -0.229253
  H            3.845842        3.633373       -1.675910
  O            2.121866       -2.193550       -0.270573
  H            2.381434       -1.352866        0.183834
  H            1.266234       -2.452014        0.155694
  O            0.201429       -2.825579       -3.660883
  H            1.125937       -2.474133       -3.709682
  H            0.289010       -3.786154       -3.885022
  O           -3.251228       -0.900759       -1.165142
  H           -2.343595       -0.687375       -0.831555
  H           -3.763842       -1.141598       -0.352839
  O           -0.042810        3.944504       -3.776908
  H            0.646396        3.235159       -3.826269
  H           -0.903198        3.460183       -3.852928
  O           -2.875188        3.826413       -3.826370
  H           -2.595175        3.886208       -2.878410
  H           -3.834070        3.582283       -3.786901
  O           -1.868681        0.269941        3.804445
  H           -2.192192       -0.662151        3.889041
  H           -1.999401        0.492116        2.848326
  O            2.873857        3.903438       -3.900861
  H            3.829968        3.791239       -3.668755
  H            2.395005        3.790367       -3.041484
  O           -3.481684        0.421509        1.511132
  H           -3.885467        0.842820        2.311174
  H           -3.787260       -0.519796        1.545523
  O            3.131385       -3.894992       -0.022492
  H            3.814406       -3.189425        0.105055
  H            2.559252       -3.835055        0.783538
  O           -1.778013        3.795271        2.838600
  H           -1.600121        3.995168        3.792018
  H           -0.882919        3.789777        2.415056
  O            3.800653        0.959304        3.408510
  H            3.906199        1.903295        3.128596
  H            3.312613        0.531783        2.660409
  O           -3.940337       -1.538439       -2.921525
  H           -3.771773       -2.386819       -2.439397
  H           -3.865410       -1.778298       -3.879370
  O           -3.824174        1.566285       -3.774658
  H           -2.870418        1.831306       -3.801574
  H           -3.805749        0.577002       -3.734754
  O            1.476751        2.141724        2.207878
  H            1.915027        1.855260        1.367365
  H            0.739192        2.733497        1.913898
  O           -3.435947       -3.802120        0.731696
  H           -3.852848       -3.816945        1.629796
  H           -3.866073       -3.038287        0.271082
  O            3.328546       -3.844873        2.637146
  H            4.002764       -3.376505        2.083365
  H            3.762961       -3.949958        3.520805
  O           -3.296429        3.373177        1.607574
  H           -3.902451        2.618850        1.397007
  H           -3.786949        3.903992        2.284507
  O            3.455070       -1.578852       -3.894085
  H            3.664695       -0.611699       -3.929900
  H            3.991966       -1.921163       -3.135680
  O           -0.745869        3.646752       -1.873400
  H           -1.261407        2.801276       -1.874984
  H            0.201768        3.359523       -1.883225
  O            3.118268        3.326829        1.974612
  H            2.334598        3.932118        1.984477
  H            3.849009        3.873299        1.589903
  O            3.113214        1.930318       -3.772093
  H            2.328155        1.328015       -3.811135
  H            3.872245        1.334466       -3.549732
  O           -3.760721        2.901316       -0.575150
  H           -3.806586        3.007709       -1.558607
  H           -3.993911        3.794920       -0.217788
  O            2.855151       -1.332239        2.118315
  H            3.726023       -1.446536        1.661008
  H            2.393074       -2.198955        1.992218
