         166
  Built with Packmol                                             
  N            0.064952       -0.170366        2.240690
  C           -0.425087       -0.283877        0.868279
  C            0.367730        0.641149       -0.071166
  C           -0.134429        0.597594       -1.523145
  C            0.096668       -0.713488       -2.230733
  O            0.727246       -1.739965       -1.628533
  O           -0.270635       -0.838959       -3.387000
  H            1.072330       -0.447205        2.286531
  H           -0.048728        0.810713        2.583748
  H           -1.501047       -0.002735        0.840683
  H           -0.338388       -1.340879        0.545678
  H            1.449826        0.389794       -0.041707
  H            0.245710        1.683089        0.295720
  H           -1.217927        0.840241       -1.535888
  H            0.400055        1.383318       -2.098747
  H           -0.488277       -0.808425        2.855591
  O           -1.526718       -3.777734       -1.688251
  H           -1.306546       -2.863384       -1.998250
  H           -0.764464       -4.034077       -1.110436
  O            1.105999        1.082506       -3.963082
  H            0.121749        1.008692       -4.043167
  H            1.412977        0.153291       -3.811630
  O            1.694467       -3.209437        2.430534
  H            1.976638       -2.272042        2.281270
  H            0.952764       -3.350302        1.789717
  O           -2.070017       -3.496115        0.305953
  H           -1.735465       -2.638115       -0.058082
  H           -1.421366       -3.734449        1.015222
  O            0.805207       -0.766448        4.380424
  H            0.926131       -1.664493        3.981046
  H           -0.084368       -0.805356        4.813730
  O           -2.769166        1.302185        3.530842
  H           -1.851022        0.934619        3.480668
  H           -2.651317        2.279567        3.423845
  O           -0.873805        2.759515       -3.384166
  H           -1.252298        3.663657       -3.243167
  H            0.106861        2.896567       -3.372973
  O           -0.570115        3.290443       -0.568699
  H            0.405457        3.426488       -0.670498
  H           -0.838483        2.798214       -1.384972
  O            2.700631        0.445063       -5.311407
  H            2.503604        1.061554       -6.060893
  H            2.781568       -0.445288       -5.737242
  O            0.077224       -3.433343        3.585564
  H           -0.496150       -2.794254        3.092189
  H           -0.130296       -3.267495        4.539525
  O            1.948907        2.886412       -4.150502
  H            2.096021        2.955569       -3.173678
  H            2.644834        2.254580       -4.462090
  O           -2.170588       -1.462713        3.715147
  H           -2.213448       -2.397895        4.037962
  H           -2.960989       -1.024174        4.119575
  O            0.513053        5.073925       -1.798478
  H           -0.446787        4.833158       -1.835229
  H            0.964398        4.377474       -2.338716
  O           -2.524445       -0.311293       -2.518738
  H           -2.008191        0.139212       -3.233678
  H           -1.885415       -0.952856       -2.117927
  O           -2.934416        3.682549        0.391630
  H           -2.549485        3.570356       -0.513827
  H           -3.436578        2.844515        0.553323
  O            0.025232        1.060280        5.525468
  H           -0.265689        1.878386        6.001577
  H           -0.205135        1.229790        4.577412
  O           -2.625467       -2.421870        1.924802
  H           -3.245221       -1.984272        1.288387
  H           -1.770642       -1.934536        1.813487
  O           -0.085244        0.406618       -7.504635
  H           -0.463903        1.124700       -6.937550
  H           -0.500368       -0.424725       -7.162357
  O           -1.948487       -1.664405       -4.095688
  H           -2.658773       -1.180704       -4.587763
  H           -2.154566       -2.622119       -4.240360
  O           -0.600069       -3.735259       -3.653711
  H           -0.233267       -2.815965       -3.684766
  H           -0.051465       -4.198364       -2.971668
  O            3.204629       -1.922074       -2.759627
  H            2.488468       -1.431209       -3.235838
  H            3.439842       -1.337963       -1.995362
  O           -3.663793       -1.843302       -1.910495
  H           -3.480996       -2.032853       -2.865098
  H           -3.197726       -2.566541       -1.420272
  O            1.776772        3.027681        4.241569
  H            1.549583        2.810238        3.302572
  H            0.940077        2.860851        4.744283
  O           -3.482096       -0.257826       -0.673588
  H           -3.284903        0.563260       -0.156341
  H           -2.820164       -0.919630       -0.350362
  O            3.708219       -0.776639        0.479379
  H            4.093682        0.106937        0.705923
  H            3.162028       -1.018887        1.269065
  O           -3.658196       -0.003567        1.725024
  H           -2.875673       -0.279054        2.265741
  H           -3.650572        0.985905        1.763746
  O            0.830471        4.032227        1.187473
  H            1.038419        4.330876        2.108438
  H            1.684539        4.130446        0.696013
  O            0.825364       -0.860375       -5.730220
  H           -0.035700       -1.163062       -5.346084
  H            0.768620        0.128182       -5.718034
  O            1.647762        1.374190        1.687837
  H            2.467829        0.822802        1.624024
  H            1.936402        2.280813        1.413363
  O           -1.950913        0.222236       -5.947279
  H           -2.279495        1.143914       -6.099446
  H           -1.394221        0.288901       -5.131029
  O            1.787185        1.056613        4.579492
  H            1.816884        0.852366        3.610981
  H            2.711902        1.330945        4.803665
  O           -3.313836        1.464385       -3.967194
  H           -3.431427        0.663127       -4.537079
  H           -2.428185        1.824507       -4.225163
  O           -1.294462        4.438284        2.020114
  H           -1.994828        3.776416        2.248212
  H           -1.144269        4.315875        1.048995
  O           -1.793673       -1.318957        5.715906
  H           -1.236607       -2.136335        5.762604
  H           -1.410254       -0.717812        6.403094
  O            3.404986        1.913319        3.018681
  H            3.764587        0.998156        3.136047
  H            3.790430        2.223207        2.160768
  O           -2.903527        1.915617       -1.579376
  H           -2.566185        2.460742       -2.334127
  H           -3.570025        1.309064       -1.989847
  O           -1.971576        0.963134        5.476434
  H           -2.856241        0.530200        5.373737
  H           -2.147680        1.926016        5.326577
  O            1.507605        0.789513        6.842377
  H            2.139163        0.204050        6.353524
  H            1.669421        1.693346        6.471546
  O            1.198624       -2.713444       -5.077051
  H            2.071141       -2.249679       -5.011881
  H            1.348228       -3.586794       -4.634907
  O            0.027323        2.778044       -5.367803
  H            0.725836        2.125572       -5.626588
  H           -0.804419        2.243223       -5.315035
  O            2.484586        0.401892       -1.752575
  H            3.178836        0.403079       -1.046441
  H            2.397644        1.352331       -2.016621
  O            2.317378        2.666602       -0.511443
  H            3.246211        2.324037       -0.488476
  H            2.342786        3.408753       -1.166562
  O            1.167353       -1.542161        6.188429
  H            0.705027       -2.416791        6.144969
  H            0.551953       -0.961532        6.702983
  O            1.928775       -3.331494       -1.772985
  H            1.636789       -3.160386       -2.703617
  H            1.211233       -3.894579       -1.387392
  O            2.801668       -0.673990        4.447463
  H            2.785678       -0.892647        3.481779
  H            2.697784       -1.547888        4.901470
  O            4.105973        0.756428       -2.868397
  H            4.025368        1.710374       -3.121577
  H            3.486037        0.284322       -3.479468
  O            1.853007       -2.383833        0.288366
  H            2.214538       -3.304404        0.238810
  H            2.322648       -1.893701       -0.432620
  O           -0.980774       -2.540565       -6.445513
  H           -0.747962       -3.013422       -5.607172
  H           -1.693530       -1.905453       -6.182406
  O           -0.689625        2.600554        3.204198
  H           -0.660359        3.455638        3.702781
  H           -0.212708        2.790650        2.357423
  O           -1.530962        2.358418        0.916834
  H           -1.766905        1.838258        0.107899
  H           -1.820854        1.787483        1.672220
