 xtb: 6.7.1 (edcfbbe)
          06092517523D

 34 26  0     0  0            999 V2000
    0.8301   -0.1833    1.2051 C   0  0  0  0  0  0  0  0  0  0  0  0
    0.5236    0.9274    2.2263 C   0  0  0  0  0  0  0  0  0  0  0  0
    0.5860    0.6006    3.4390 O   0  0  0  0  0  0  0  0  0  0  0  0
    0.2503    2.0695    1.8108 O   0  0  0  0  0  0  0  0  0  0  0  0
    0.2163    0.0404   -0.1700 C   0  0  0  0  0  0  0  0  0  0  0  0
   -1.2208   -0.3061   -0.1898 N   0  0  0  0  0  0  0  0  0  0  0  0
    1.9187   -0.2044    1.1230 H   0  0  0  0  0  0  0  0  0  0  0  0
    0.5141   -1.1351    1.6316 H   0  0  0  0  0  0  0  0  0  0  0  0
    0.3421    1.0900   -0.4425 H   0  0  0  0  0  0  0  0  0  0  0  0
    0.7413   -0.5871   -0.8899 H   0  0  0  0  0  0  0  0  0  0  0  0
   -1.4163   -1.1249    0.4414 H   0  0  0  0  0  0  0  0  0  0  0  0
   -1.5200   -0.5358   -1.1382 H   0  0  0  0  0  0  0  0  0  0  0  0
   -1.8212    0.4885    0.1317 H   0  0  0  0  0  0  0  0  0  0  0  0
   -3.0470    1.6795    0.2992 O   0  0  0  0  0  0  0  0  0  0  0  0
   -3.9651    1.4425    0.4609 H   0  0  0  0  0  0  0  0  0  0  0  0
   -2.7816    2.2769    1.0210 H   0  0  0  0  0  0  0  0  0  0  0  0
   -0.1726   -5.4706    5.8160 O   0  0  0  0  0  0  0  0  0  0  0  0
   -0.9896   -5.0115    6.0356 H   0  0  0  0  0  0  0  0  0  0  0  0
    0.3518   -4.8652    5.2821 H   0  0  0  0  0  0  0  0  0  0  0  0
   -2.7902    1.5316    4.6036 O   0  0  0  0  0  0  0  0  0  0  0  0
   -2.7215    2.1070    3.8207 H   0  0  0  0  0  0  0  0  0  0  0  0
   -2.0043    1.7669    5.1307 H   0  0  0  0  0  0  0  0  0  0  0  0
   -1.7015   -0.8972    3.8995 O   0  0  0  0  0  0  0  0  0  0  0  0
   -0.8169   -0.4954    3.8488 H   0  0  0  0  0  0  0  0  0  0  0  0
   -2.2831   -0.1565    4.1681 H   0  0  0  0  0  0  0  0  0  0  0  0
   -0.2443    2.0322    5.5919 O   0  0  0  0  0  0  0  0  0  0  0  0
    0.1295    1.5899    4.7969 H   0  0  0  0  0  0  0  0  0  0  0  0
    0.1679    1.6041    6.3478 H   0  0  0  0  0  0  0  0  0  0  0  0
   -2.1177    3.1671    2.4188 O   0  0  0  0  0  0  0  0  0  0  0  0
   -1.2000    2.8441    2.2819 H   0  0  0  0  0  0  0  0  0  0  0  0
   -2.0544    4.1237    2.4957 H   0  0  0  0  0  0  0  0  0  0  0  0
   -1.8150   -2.3029    1.5760 O   0  0  0  0  0  0  0  0  0  0  0  0
   -1.8200   -1.8552    2.4474 H   0  0  0  0  0  0  0  0  0  0  0  0
   -2.6330   -2.8057    1.5227 H   0  0  0  0  0  0  0  0  0  0  0  0
  1  2  1  0  0  0  0
  2  3  4  0  0  0  0
  2  4  4  0  0  0  0
  1  5  1  0  0  0  0
  5  6  1  0  0  0  0
  1  7  1  0  0  0  0
  1  8  1  0  0  0  0
  5  9  1  0  0  0  0
  5 10  1  0  0  0  0
  6 11  1  0  0  0  0
  6 12  1  0  0  0  0
  6 13  1  0  0  0  0
 14 15  1  0  0  0  0
 14 16  1  0  0  0  0
 17 18  1  0  0  0  0
 17 19  1  0  0  0  0
 20 21  1  0  0  0  0
 20 22  1  0  0  0  0
 23 24  1  0  0  0  0
 23 25  1  0  0  0  0
 26 27  1  0  0  0  0
 26 28  1  0  0  0  0
 29 30  1  0  0  0  0
 29 31  1  0  0  0  0
 32 33  1  0  0  0  0
 32 34  1  0  0  0  0
M  END
