 xtb: 6.7.1 (edcfbbe)
          06092517593D

 34 26  0     0  0            999 V2000
    1.2984    0.4582   -0.2995 H   0  0  0  0  0  0  0  0  0  0  0  0
    0.3615   -0.1024   -0.2494 C   0  0  0  0  0  0  0  0  0  0  0  0
   -0.2873    1.0123   -1.9387 H   0  0  0  0  0  0  0  0  0  0  0  0
    0.5257   -1.1054   -0.6429 H   0  0  0  0  0  0  0  0  0  0  0  0
   -0.6565    0.6063   -1.0463 N   0  0  0  0  0  0  0  0  0  0  0  0
    0.6159   -0.7353    1.8134 H   0  0  0  0  0  0  0  0  0  0  0  0
   -0.1001   -0.1859    1.2044 C   0  0  0  0  0  0  0  0  0  0  0  0
   -0.8598    2.0938    1.1643 O   0  0  0  0  0  0  0  0  0  0  0  0
   -0.2964    1.1982    1.8646 C   0  0  0  0  0  0  0  0  0  0  0  0
   -0.9423    1.4047   -0.4357 H   0  0  0  0  0  0  0  0  0  0  0  0
    0.0698    1.3549    3.0361 O   0  0  0  0  0  0  0  0  0  0  0  0
   -1.4944    0.0428   -1.2031 H   0  0  0  0  0  0  0  0  0  0  0  0
   -1.0657   -0.6946    1.2669 H   0  0  0  0  0  0  0  0  0  0  0  0
   -3.5294    4.8795   -3.6406 O   0  0  0  0  0  0  0  0  0  0  0  0
   -2.8957    4.2574   -4.0502 H   0  0  0  0  0  0  0  0  0  0  0  0
   -3.2993    5.7474   -3.9832 H   0  0  0  0  0  0  0  0  0  0  0  0
   -1.6871    3.1363   -4.7966 O   0  0  0  0  0  0  0  0  0  0  0  0
   -0.9847    2.8581   -4.1736 H   0  0  0  0  0  0  0  0  0  0  0  0
   -2.0595    2.3244   -5.1524 H   0  0  0  0  0  0  0  0  0  0  0  0
    2.7437    2.0252   -0.8666 O   0  0  0  0  0  0  0  0  0  0  0  0
    2.9153    2.0210   -1.8226 H   0  0  0  0  0  0  0  0  0  0  0  0
    2.1076    2.7432   -0.7225 H   0  0  0  0  0  0  0  0  0  0  0  0
    0.2239    2.2587   -2.9980 O   0  0  0  0  0  0  0  0  0  0  0  0
    0.2969    2.8985   -2.2646 H   0  0  0  0  0  0  0  0  0  0  0  0
    1.1325    2.1274   -3.3190 H   0  0  0  0  0  0  0  0  0  0  0  0
   -3.3156    1.0723    0.0744 O   0  0  0  0  0  0  0  0  0  0  0  0
   -3.9719    1.7086   -0.2242 H   0  0  0  0  0  0  0  0  0  0  0  0
   -2.6970    1.5611    0.6369 H   0  0  0  0  0  0  0  0  0  0  0  0
    2.9059    1.9451   -3.7406 O   0  0  0  0  0  0  0  0  0  0  0  0
    3.2181    1.1077   -4.0979 H   0  0  0  0  0  0  0  0  0  0  0  0
    3.3289    2.6469   -4.2453 H   0  0  0  0  0  0  0  0  0  0  0  0
    0.4612    3.7271   -0.6471 O   0  0  0  0  0  0  0  0  0  0  0  0
    0.0077    3.2601    0.0779 H   0  0  0  0  0  0  0  0  0  0  0  0
    0.2611    4.6603   -0.5349 H   0  0  0  0  0  0  0  0  0  0  0  0
  1  2  1  0  0  0  0
  2  4  1  0  0  0  0
  2  5  1  0  0  0  0
  3  5  1  0  0  0  0
  2  7  1  0  0  0  0
  6  7  1  0  0  0  0
  7  9  1  0  0  0  0
  8  9  4  0  0  0  0
  5 10  1  0  0  0  0
  9 11  2  0  0  0  0
  5 12  1  0  0  0  0
  7 13  1  0  0  0  0
 14 15  1  0  0  0  0
 14 16  1  0  0  0  0
 17 18  1  0  0  0  0
 17 19  1  0  0  0  0
 20 21  1  0  0  0  0
 20 22  1  0  0  0  0
 23 24  1  0  0  0  0
 23 25  1  0  0  0  0
 26 27  1  0  0  0  0
 26 28  1  0  0  0  0
 29 30  1  0  0  0  0
 29 31  1  0  0  0  0
 32 33  1  0  0  0  0
 32 34  1  0  0  0  0
M  END
