 xtb: 6.7.1 (edcfbbe)
          06092517593D

 34 26  0     0  0            999 V2000
    0.6798   -0.4134   -0.9687 H   0  0  0  0  0  0  0  0  0  0  0  0
   -0.3666   -0.1725   -0.7748 C   0  0  0  0  0  0  0  0  0  0  0  0
   -0.1251    1.6384   -1.8599 H   0  0  0  0  0  0  0  0  0  0  0  0
   -0.9911   -0.7462   -1.4610 H   0  0  0  0  0  0  0  0  0  0  0  0
   -0.5709    1.2683   -0.9832 N   0  0  0  0  0  0  0  0  0  0  0  0
   -0.5600   -1.6065    0.8457 H   0  0  0  0  0  0  0  0  0  0  0  0
   -0.7011   -0.5410    0.6687 C   0  0  0  0  0  0  0  0  0  0  0  0
    0.4582    1.4102    1.4727 O   0  0  0  0  0  0  0  0  0  0  0  0
    0.1615    0.2135    1.7197 C   0  0  0  0  0  0  0  0  0  0  0  0
   -0.1288    1.7263   -0.1554 H   0  0  0  0  0  0  0  0  0  0  0  0
    0.4811   -0.4083    2.7474 O   0  0  0  0  0  0  0  0  0  0  0  0
   -1.5700    1.5274   -0.9862 H   0  0  0  0  0  0  0  0  0  0  0  0
   -1.7415   -0.2982    0.8940 H   0  0  0  0  0  0  0  0  0  0  0  0
    0.2518    2.3290   -5.7847 O   0  0  0  0  0  0  0  0  0  0  0  0
   -0.4742    2.7362   -6.2664 H   0  0  0  0  0  0  0  0  0  0  0  0
    1.0715    2.6735   -6.1818 H   0  0  0  0  0  0  0  0  0  0  0  0
   -1.2894    4.2771   -1.9111 O   0  0  0  0  0  0  0  0  0  0  0  0
   -0.7677    4.3717   -1.0927 H   0  0  0  0  0  0  0  0  0  0  0  0
   -2.0363    3.7058   -1.6718 H   0  0  0  0  0  0  0  0  0  0  0  0
    0.4999    2.6149   -3.0584 O   0  0  0  0  0  0  0  0  0  0  0  0
   -0.1218    3.3452   -2.8357 H   0  0  0  0  0  0  0  0  0  0  0  0
    0.4035    2.4414   -4.0131 H   0  0  0  0  0  0  0  0  0  0  0  0
    2.6099    3.4904   -6.7252 O   0  0  0  0  0  0  0  0  0  0  0  0
    2.7578    4.3901   -6.4154 H   0  0  0  0  0  0  0  0  0  0  0  0
    3.4331    3.0084   -6.5992 H   0  0  0  0  0  0  0  0  0  0  0  0
    0.3877    4.0570    0.3040 O   0  0  0  0  0  0  0  0  0  0  0  0
    1.2154    3.9726   -0.2127 H   0  0  0  0  0  0  0  0  0  0  0  0
    0.4301    3.3588    0.9703 H   0  0  0  0  0  0  0  0  0  0  0  0
    2.4984    3.4126   -1.3556 O   0  0  0  0  0  0  0  0  0  0  0  0
    2.9401    2.6196   -1.0416 H   0  0  0  0  0  0  0  0  0  0  0  0
    1.9026    3.1274   -2.0806 H   0  0  0  0  0  0  0  0  0  0  0  0
   -3.2256    2.3072   -1.0682 O   0  0  0  0  0  0  0  0  0  0  0  0
   -3.8874    1.9855   -1.6889 H   0  0  0  0  0  0  0  0  0  0  0  0
   -3.6848    2.5830   -0.2702 H   0  0  0  0  0  0  0  0  0  0  0  0
  1  2  1  0  0  0  0
  2  4  1  0  0  0  0
  2  5  1  0  0  0  0
  3  5  1  0  0  0  0
  2  7  1  0  0  0  0
  6  7  1  0  0  0  0
  7  9  1  0  0  0  0
  8  9  4  0  0  0  0
  5 10  1  0  0  0  0
  9 11  2  0  0  0  0
  5 12  1  0  0  0  0
  7 13  1  0  0  0  0
 14 15  1  0  0  0  0
 14 16  1  0  0  0  0
 17 18  1  0  0  0  0
 17 19  1  0  0  0  0
 20 21  1  0  0  0  0
 20 22  1  0  0  0  0
 23 24  1  0  0  0  0
 23 25  1  0  0  0  0
 26 27  1  0  0  0  0
 26 28  1  0  0  0  0
 29 30  1  0  0  0  0
 29 31  1  0  0  0  0
 32 33  1  0  0  0  0
 32 34  1  0  0  0  0
M  END
