 xtb: 6.7.1 (edcfbbe)
          06092518053D

 37 29  0     0  0            999 V2000
    1.0972    0.3873    0.5981 N   0  0  0  0  0  0  0  0  0  0  0  0
    0.6232    1.5538   -0.1688 C   0  0  0  0  0  0  0  0  0  0  0  0
   -0.8914    1.5467   -0.3572 C   0  0  0  0  0  0  0  0  0  0  0  0
   -1.4384    0.2266   -0.9303 C   0  0  0  0  0  0  0  0  0  0  0  0
   -0.4715   -0.4331   -1.9318 C   0  0  0  0  0  0  0  0  0  0  0  0
   -0.5229   -0.1055   -3.1347 O   0  0  0  0  0  0  0  0  0  0  0  0
    0.3422   -1.2599   -1.4488 O   0  0  0  0  0  0  0  0  0  0  0  0
    2.1328    0.4002    0.6255 H   0  0  0  0  0  0  0  0  0  0  0  0
    0.6923    0.3653    1.5536 H   0  0  0  0  0  0  0  0  0  0  0  0
    0.9168    2.4681    0.3459 H   0  0  0  0  0  0  0  0  0  0  0  0
    1.1016    1.5363   -1.1481 H   0  0  0  0  0  0  0  0  0  0  0  0
   -1.1408    2.3600   -1.0389 H   0  0  0  0  0  0  0  0  0  0  0  0
   -1.3882    1.7373    0.5949 H   0  0  0  0  0  0  0  0  0  0  0  0
   -1.6104   -0.4951   -0.1302 H   0  0  0  0  0  0  0  0  0  0  0  0
   -2.3839    0.4097   -1.4421 H   0  0  0  0  0  0  0  0  0  0  0  0
    0.8211   -0.4680    0.0728 H   0  0  0  0  0  0  0  0  0  0  0  0
    0.9850    2.1358   -3.7487 O   0  0  0  0  0  0  0  0  0  0  0  0
    1.2563    1.7989   -4.6195 H   0  0  0  0  0  0  0  0  0  0  0  0
    0.3293    1.4734   -3.4670 H   0  0  0  0  0  0  0  0  0  0  0  0
    1.4236   -0.0702   -5.3829 O   0  0  0  0  0  0  0  0  0  0  0  0
    0.7464   -0.3590   -4.7532 H   0  0  0  0  0  0  0  0  0  0  0  0
    2.2838   -0.2989   -4.9654 H   0  0  0  0  0  0  0  0  0  0  0  0
    3.7148   -0.4440   -3.9207 O   0  0  0  0  0  0  0  0  0  0  0  0
    3.7268    0.4173   -3.4630 H   0  0  0  0  0  0  0  0  0  0  0  0
    3.5336   -1.0917   -3.2060 H   0  0  0  0  0  0  0  0  0  0  0  0
    0.0222    0.3395    3.1730 O   0  0  0  0  0  0  0  0  0  0  0  0
    0.3762    0.9101    3.8623 H   0  0  0  0  0  0  0  0  0  0  0  0
   -0.1761   -0.5106    3.5754 H   0  0  0  0  0  0  0  0  0  0  0  0
    3.3727    1.9576   -2.4778 O   0  0  0  0  0  0  0  0  0  0  0  0
    3.8581    2.7565   -2.7036 H   0  0  0  0  0  0  0  0  0  0  0  0
    2.4866    2.0559   -2.8926 H   0  0  0  0  0  0  0  0  0  0  0  0
    3.0427   -1.8254   -1.6705 O   0  0  0  0  0  0  0  0  0  0  0  0
    2.0709   -1.7612   -1.6800 H   0  0  0  0  0  0  0  0  0  0  0  0
    3.3370   -1.1399   -1.0391 H   0  0  0  0  0  0  0  0  0  0  0  0
    3.7456    0.4518   -0.1668 O   0  0  0  0  0  0  0  0  0  0  0  0
    4.6418    0.5926    0.1505 H   0  0  0  0  0  0  0  0  0  0  0  0
    3.6378    1.0074   -0.9610 H   0  0  0  0  0  0  0  0  0  0  0  0
  1  2  1  0  0  0  0
  2  3  1  0  0  0  0
  3  4  1  0  0  0  0
  4  5  1  0  0  0  0
  5  6  4  0  0  0  0
  5  7  4  0  0  0  0
  1  8  1  0  0  0  0
  1  9  1  0  0  0  0
  2 10  1  0  0  0  0
  2 11  1  0  0  0  0
  3 12  1  0  0  0  0
  3 13  1  0  0  0  0
  4 14  1  0  0  0  0
  4 15  1  0  0  0  0
  1 16  1  0  0  0  0
 17 18  1  0  0  0  0
 17 19  1  0  0  0  0
 20 21  1  0  0  0  0
 20 22  1  0  0  0  0
 23 24  1  0  0  0  0
 23 25  1  0  0  0  0
 26 27  1  0  0  0  0
 26 28  1  0  0  0  0
 29 30  1  0  0  0  0
 29 31  1  0  0  0  0
 32 33  1  0  0  0  0
 32 34  1  0  0  0  0
 35 36  1  0  0  0  0
 35 37  1  0  0  0  0
M  END
