          34
  Built with Packmol                                             
  C            0.000717       -0.522558        0.678044
  C            0.000155        0.093927        2.050368
  O           -0.000195       -0.630131        3.032262
  O           -0.000797        1.431559        2.216433
  C            0.000989        0.525311       -0.443260
  N           -0.000301       -0.116591       -1.756652
  H            0.902593       -1.162928        0.578888
  H           -0.902640       -1.160238        0.579017
  H           -0.902002        1.167413       -0.351037
  H            0.903666        1.168949       -0.351720
  H           -0.857069       -0.705532       -1.867523
  H            0.853228       -0.710069       -1.867795
  H            0.001656        0.620887       -2.497026
  O           -0.194731       -4.425119       -4.268337
  H            0.463353       -3.719540       -4.045414
  H           -1.016448       -4.160130       -3.783390
  O            2.907944       -2.803676       -2.204976
  H            2.727027       -1.834609       -2.111225
  H            2.196397       -3.241473       -1.673330
  O            0.247732       -3.660352        0.397397
  H           -0.319324       -4.116470       -0.274179
  H            1.173803       -3.909324        0.150379
  O           -1.557763       -2.225930       -5.934357
  H           -2.426775       -2.116256       -5.472405
  H           -0.928297       -2.493942       -5.218427
  O            2.839028       -0.268331        5.285970
  H            2.327147       -0.690924        6.020819
  H            2.185465       -0.179782        4.547303
  O            1.619176        1.572987        5.782798
  H            1.513025        2.242138        6.505002
  H            2.404396        1.886668        5.267389
  O           -2.674943       -2.380262       -2.400434
  H           -2.736038       -3.325553       -2.111811
  H           -2.277707       -2.422692       -3.306533
