          34
  Built with Packmol                                             
  C            0.000717       -0.522558        0.678044
  C            0.000155        0.093927        2.050368
  O           -0.000195       -0.630131        3.032262
  O           -0.000797        1.431559        2.216433
  C            0.000989        0.525311       -0.443260
  N           -0.000301       -0.116591       -1.756652
  H            0.902593       -1.162928        0.578888
  H           -0.902640       -1.160238        0.579017
  H           -0.902002        1.167413       -0.351037
  H            0.903666        1.168949       -0.351720
  H           -0.857069       -0.705532       -1.867523
  H            0.853228       -0.710069       -1.867795
  H            0.001656        0.620887       -2.497026
  O            2.186550       -3.774782        0.927450
  H            1.298414       -4.209938        0.877811
  H            2.684938       -4.139063        0.153163
  O           -1.068789       -2.071026        4.359981
  H           -0.811821       -2.604834        3.566489
  H           -1.779150       -1.464353        4.031427
  O            2.428623       -2.049559        2.266229
  H            2.896288       -1.263203        2.645102
  H            1.971294       -2.463299        3.041008
  O           -0.349775        2.075200        6.640659
  H           -0.178132        2.275256        5.686129
  H            0.265675        1.328844        6.852288
  O            1.144261       -3.162340       -1.073335
  H            1.869747       -2.488560       -1.055935
  H            0.572833       -2.892009       -1.835572
  O           -2.542067       -2.616036        0.469640
  H           -2.300198       -3.561093        0.639866
  H           -3.252481       -2.418811        1.130720
  O            0.190142       -1.569386       -6.507942
  H           -0.252952       -2.394472       -6.186211
  H           -0.143879       -1.452902       -7.432861
