 xtb: 6.7.1 (edcfbbe)
          06092517593D

 34 26  0     0  0            999 V2000
    1.3263    0.1254   -0.0636 H   0  0  0  0  0  0  0  0  0  0  0  0
    0.3618   -0.1522    0.3628 C   0  0  0  0  0  0  0  0  0  0  0  0
   -0.3373    0.0717   -1.6128 H   0  0  0  0  0  0  0  0  0  0  0  0
    0.3630   -1.2215    0.5770 H   0  0  0  0  0  0  0  0  0  0  0  0
   -0.6941    0.1735   -0.6200 N   0  0  0  0  0  0  0  0  0  0  0  0
    0.8941    0.3652    2.3948 H   0  0  0  0  0  0  0  0  0  0  0  0
    0.1371    0.6244    1.6573 C   0  0  0  0  0  0  0  0  0  0  0  0
   -0.4001    2.6184    0.4377 O   0  0  0  0  0  0  0  0  0  0  0  0
    0.1657    2.1493    1.4539 C   0  0  0  0  0  0  0  0  0  0  0  0
   -0.8949    1.1857   -0.4708 H   0  0  0  0  0  0  0  0  0  0  0  0
    0.7358    2.8476    2.3237 O   0  0  0  0  0  0  0  0  0  0  0  0
   -1.5347   -0.3826   -0.4720 H   0  0  0  0  0  0  0  0  0  0  0  0
   -0.8402    0.3827    2.0822 H   0  0  0  0  0  0  0  0  0  0  0  0
    0.8164    5.6206    2.3434 O   0  0  0  0  0  0  0  0  0  0  0  0
    0.7171    4.6478    2.3367 H   0  0  0  0  0  0  0  0  0  0  0  0
    1.6952    5.7932    1.9906 H   0  0  0  0  0  0  0  0  0  0  0  0
    0.4714    0.3901   -3.0147 O   0  0  0  0  0  0  0  0  0  0  0  0
    0.4039    1.3606   -2.9589 H   0  0  0  0  0  0  0  0  0  0  0  0
    1.3852    0.1799   -2.7586 H   0  0  0  0  0  0  0  0  0  0  0  0
    2.6308   -3.4689    3.1342 O   0  0  0  0  0  0  0  0  0  0  0  0
    2.6430   -3.1664    4.0476 H   0  0  0  0  0  0  0  0  0  0  0  0
    3.4451   -3.1615    2.7269 H   0  0  0  0  0  0  0  0  0  0  0  0
    0.2629   -3.1831    1.5669 O   0  0  0  0  0  0  0  0  0  0  0  0
   -0.3920   -3.7991    1.9086 H   0  0  0  0  0  0  0  0  0  0  0  0
    1.0731   -3.3367    2.0794 H   0  0  0  0  0  0  0  0  0  0  0  0
    2.9958   -0.0559   -1.8726 O   0  0  0  0  0  0  0  0  0  0  0  0
    3.6743    0.6142   -1.9930 H   0  0  0  0  0  0  0  0  0  0  0  0
    3.4316   -0.9132   -1.9136 H   0  0  0  0  0  0  0  0  0  0  0  0
    2.2761    1.5293    4.2141 O   0  0  0  0  0  0  0  0  0  0  0  0
    1.7600    2.0489    3.5672 H   0  0  0  0  0  0  0  0  0  0  0  0
    2.3187    2.0683    5.0098 H   0  0  0  0  0  0  0  0  0  0  0  0
    0.1791    3.0586   -2.2741 O   0  0  0  0  0  0  0  0  0  0  0  0
   -0.4295    3.7207   -2.6124 H   0  0  0  0  0  0  0  0  0  0  0  0
    0.0629    3.0526   -1.3108 H   0  0  0  0  0  0  0  0  0  0  0  0
  1  2  1  0  0  0  0
  2  4  1  0  0  0  0
  2  5  1  0  0  0  0
  3  5  1  0  0  0  0
  2  7  1  0  0  0  0
  6  7  1  0  0  0  0
  7  9  1  0  0  0  0
  8  9  4  0  0  0  0
  5 10  1  0  0  0  0
  9 11  4  0  0  0  0
  5 12  1  0  0  0  0
  7 13  1  0  0  0  0
 14 15  1  0  0  0  0
 14 16  1  0  0  0  0
 17 18  1  0  0  0  0
 17 19  1  0  0  0  0
 20 21  1  0  0  0  0
 20 22  1  0  0  0  0
 23 24  1  0  0  0  0
 23 25  1  0  0  0  0
 26 27  1  0  0  0  0
 26 28  1  0  0  0  0
 29 30  1  0  0  0  0
 29 31  1  0  0  0  0
 32 33  1  0  0  0  0
 32 34  1  0  0  0  0
M  END
