 xtb: 6.7.1 (edcfbbe)
          06092518003D

 37 29  0     0  0            999 V2000
    0.8631    0.0793    2.1705 N   0  0  0  0  0  0  0  0  0  0  0  0
    0.7398   -0.7395    0.9504 C   0  0  0  0  0  0  0  0  0  0  0  0
    0.6975    0.1132   -0.3113 C   0  0  0  0  0  0  0  0  0  0  0  0
    0.5266   -0.7838   -1.5291 C   0  0  0  0  0  0  0  0  0  0  0  0
    0.5966   -0.0488   -2.8752 C   0  0  0  0  0  0  0  0  0  0  0  0
    0.7749    1.1768   -2.9131 O   0  0  0  0  0  0  0  0  0  0  0  0
    0.4655   -0.7843   -3.9046 O   0  0  0  0  0  0  0  0  0  0  0  0
    1.7213    0.6305    2.1396 H   0  0  0  0  0  0  0  0  0  0  0  0
    0.0596    0.7297    2.2624 H   0  0  0  0  0  0  0  0  0  0  0  0
   -0.1694   -1.3368    1.0088 H   0  0  0  0  0  0  0  0  0  0  0  0
    1.5860   -1.4240    0.8967 H   0  0  0  0  0  0  0  0  0  0  0  0
    1.6173    0.6886   -0.4353 H   0  0  0  0  0  0  0  0  0  0  0  0
   -0.1306    0.8228   -0.2762 H   0  0  0  0  0  0  0  0  0  0  0  0
   -0.4349   -1.3004   -1.5006 H   0  0  0  0  0  0  0  0  0  0  0  0
    1.3072   -1.5476   -1.5544 H   0  0  0  0  0  0  0  0  0  0  0  0
    0.8954   -0.5594    3.0127 H   0  0  0  0  0  0  0  0  0  0  0  0
   -1.2460    1.8768    2.5387 O   0  0  0  0  0  0  0  0  0  0  0  0
   -2.0916    1.6037    2.9050 H   0  0  0  0  0  0  0  0  0  0  0  0
   -1.1006    2.7940    2.7852 H   0  0  0  0  0  0  0  0  0  0  0  0
   -0.8247   -3.6325    0.5303 O   0  0  0  0  0  0  0  0  0  0  0  0
   -1.6605   -4.0764    0.7020 H   0  0  0  0  0  0  0  0  0  0  0  0
   -0.6007   -3.8378   -0.3990 H   0  0  0  0  0  0  0  0  0  0  0  0
    1.2899   -3.7702    2.3084 O   0  0  0  0  0  0  0  0  0  0  0  0
    0.5496   -3.7353    1.6732 H   0  0  0  0  0  0  0  0  0  0  0  0
    1.8361   -4.5178    2.0591 H   0  0  0  0  0  0  0  0  0  0  0  0
    0.9754   -1.7553    4.1468 O   0  0  0  0  0  0  0  0  0  0  0  0
    0.1677   -1.9859    4.6152 H   0  0  0  0  0  0  0  0  0  0  0  0
    1.1919   -2.5208    3.5834 H   0  0  0  0  0  0  0  0  0  0  0  0
   -0.3563   -4.2005   -2.1090 O   0  0  0  0  0  0  0  0  0  0  0  0
   -0.9790   -3.6689   -2.6372 H   0  0  0  0  0  0  0  0  0  0  0  0
    0.5141   -3.9806   -2.4851 H   0  0  0  0  0  0  0  0  0  0  0  0
    1.8032   -3.1328   -3.5543 O   0  0  0  0  0  0  0  0  0  0  0  0
    1.3450   -2.2840   -3.7369 H   0  0  0  0  0  0  0  0  0  0  0  0
    2.1206   -3.4528   -4.4034 H   0  0  0  0  0  0  0  0  0  0  0  0
   -1.6982   -2.4223   -3.7887 O   0  0  0  0  0  0  0  0  0  0  0  0
   -0.9430   -1.8021   -3.8743 H   0  0  0  0  0  0  0  0  0  0  0  0
   -1.9935   -2.6068   -4.6857 H   0  0  0  0  0  0  0  0  0  0  0  0
  1  2  1  0  0  0  0
  2  3  1  0  0  0  0
  3  4  1  0  0  0  0
  4  5  1  0  0  0  0
  5  6  2  0  0  0  0
  5  7  4  0  0  0  0
  1  8  1  0  0  0  0
  1  9  1  0  0  0  0
  2 10  1  0  0  0  0
  2 11  1  0  0  0  0
  3 12  1  0  0  0  0
  3 13  1  0  0  0  0
  4 14  1  0  0  0  0
  4 15  1  0  0  0  0
  1 16  1  0  0  0  0
 17 18  1  0  0  0  0
 17 19  1  0  0  0  0
 20 21  1  0  0  0  0
 20 22  1  0  0  0  0
 23 24  1  0  0  0  0
 23 25  1  0  0  0  0
 26 27  1  0  0  0  0
 26 28  1  0  0  0  0
 29 30  1  0  0  0  0
 29 31  1  0  0  0  0
 32 33  1  0  0  0  0
 32 34  1  0  0  0  0
 35 36  1  0  0  0  0
 35 37  1  0  0  0  0
M  END
