37

N 2.790222 -0.694102 -1.308696
H 2.071215 -1.388515 -1.409785
H 2.794642 0.044283 -2.007315
H 3.671683 -1.188443 -1.362112
C 2.533634 0.000000 0.000000
H 3.340656 0.727844 0.016027
H 2.782881 -0.701278 0.796986
C 1.260206 0.801113 0.000000
H 1.176926 1.491714 -0.838710
H 1.186754 1.422204 0.893448
C 0.000000 0.000000 0.000000
H -0.826757 0.700257 0.014606
H -0.084503 -0.623768 0.892397
C -0.296728 -0.934902 -1.140005
O 0.477654 -1.870951 -1.242694
O -0.754411 -0.403049 -2.209845
O 3.265586 1.403035 -3.206733
H 3.714231 2.014080 -3.800233
H 2.377810 1.327991 -3.557620
O 1.569406 -2.634804 -3.501567
H 0.848426 -2.641066 -2.871053
H 1.192359 -2.274359 -4.297880
O -0.926298 -1.761767 -4.384159
H -1.845689 -1.936747 -4.588371
H -0.939836 -1.322552 -3.538992
O 5.183306 -1.958817 -1.930018
H 6.084818 -2.277611 -1.843144
H 4.659908 -2.742864 -2.107286
O 0.797353 1.008686 -4.171053
H 0.148680 0.601704 -3.596171
H 0.437988 0.906671 -5.059112
O 1.445276 -3.133074 0.824877
H 0.772764 -3.407188 1.457877
H 0.959570 -2.992159 0.014425
O 3.321238 -3.952557 -1.638985
H 2.782052 -4.030966 -2.431090
H 2.704258 -4.004084 -0.913946
