 xtb: 6.7.1 (edcfbbe)
          06092518033D

 37 29  0     0  0            999 V2000
    0.7804   -0.3616    2.7792 N   0  0  0  0  0  0  0  0  0  0  0  0
   -0.1864   -0.5881    1.6907 C   0  0  0  0  0  0  0  0  0  0  0  0
    0.0206    0.3827    0.5312 C   0  0  0  0  0  0  0  0  0  0  0  0
   -0.6932   -0.0992   -0.7318 C   0  0  0  0  0  0  0  0  0  0  0  0
    0.0160   -1.2483   -1.4653 C   0  0  0  0  0  0  0  0  0  0  0  0
    0.9096   -1.8955   -0.8655 O   0  0  0  0  0  0  0  0  0  0  0  0
   -0.3295   -1.4745   -2.6449 O   0  0  0  0  0  0  0  0  0  0  0  0
    1.7718   -0.3501    2.3990 H   0  0  0  0  0  0  0  0  0  0  0  0
    0.5982    0.5103    3.2739 H   0  0  0  0  0  0  0  0  0  0  0  0
   -1.2034   -0.4995    2.0747 H   0  0  0  0  0  0  0  0  0  0  0  0
   -0.0525   -1.6036    1.3221 H   0  0  0  0  0  0  0  0  0  0  0  0
    1.0850    0.4708    0.3091 H   0  0  0  0  0  0  0  0  0  0  0  0
   -0.3579    1.3727    0.7878 H   0  0  0  0  0  0  0  0  0  0  0  0
   -1.7045   -0.4469   -0.5050 H   0  0  0  0  0  0  0  0  0  0  0  0
   -0.7868    0.7066   -1.4625 H   0  0  0  0  0  0  0  0  0  0  0  0
    0.7473   -1.1800    3.4288 H   0  0  0  0  0  0  0  0  0  0  0  0
    0.9268   -2.8461    3.8716 O   0  0  0  0  0  0  0  0  0  0  0  0
    1.5037   -3.1224    4.5889 H   0  0  0  0  0  0  0  0  0  0  0  0
    1.3422   -3.1511    3.0461 H   0  0  0  0  0  0  0  0  0  0  0  0
    4.1372   -2.1286   -2.9962 O   0  0  0  0  0  0  0  0  0  0  0  0
    3.2941   -2.0999   -3.4885 H   0  0  0  0  0  0  0  0  0  0  0  0
    4.8355   -2.1377   -3.6576 H   0  0  0  0  0  0  0  0  0  0  0  0
    1.6995   -2.2166   -4.3012 O   0  0  0  0  0  0  0  0  0  0  0  0
    1.3805   -2.9552   -4.8291 H   0  0  0  0  0  0  0  0  0  0  0  0
    0.9498   -1.9538   -3.7259 H   0  0  0  0  0  0  0  0  0  0  0  0
    3.2827   -0.4837   -0.8357 O   0  0  0  0  0  0  0  0  0  0  0  0
    2.4474   -0.9861   -0.8591 H   0  0  0  0  0  0  0  0  0  0  0  0
    3.8288   -0.9045   -1.5159 H   0  0  0  0  0  0  0  0  0  0  0  0
    2.7737   -3.9874   -1.3128 O   0  0  0  0  0  0  0  0  0  0  0  0
    2.0081   -3.3881   -1.3369 H   0  0  0  0  0  0  0  0  0  0  0  0
    3.4486   -3.5290   -1.8365 H   0  0  0  0  0  0  0  0  0  0  0  0
    2.1992   -3.1644    1.3745 O   0  0  0  0  0  0  0  0  0  0  0  0
    2.6650   -3.8460    0.8747 H   0  0  0  0  0  0  0  0  0  0  0  0
    1.6829   -2.6983    0.6969 H   0  0  0  0  0  0  0  0  0  0  0  0
    3.3100   -0.6940    1.9059 O   0  0  0  0  0  0  0  0  0  0  0  0
    3.1607   -1.6578    1.8500 H   0  0  0  0  0  0  0  0  0  0  0  0
    3.4717   -0.4275    0.9843 H   0  0  0  0  0  0  0  0  0  0  0  0
  1  2  1  0  0  0  0
  2  3  1  0  0  0  0
  3  4  1  0  0  0  0
  4  5  1  0  0  0  0
  5  6  4  0  0  0  0
  5  7  4  0  0  0  0
  1  8  1  0  0  0  0
  1  9  1  0  0  0  0
  2 10  1  0  0  0  0
  2 11  1  0  0  0  0
  3 12  1  0  0  0  0
  3 13  1  0  0  0  0
  4 14  1  0  0  0  0
  4 15  1  0  0  0  0
  1 16  1  0  0  0  0
 17 18  1  0  0  0  0
 17 19  1  0  0  0  0
 20 21  1  0  0  0  0
 20 22  1  0  0  0  0
 23 24  1  0  0  0  0
 23 25  1  0  0  0  0
 26 27  1  0  0  0  0
 26 28  1  0  0  0  0
 29 30  1  0  0  0  0
 29 31  1  0  0  0  0
 32 33  1  0  0  0  0
 32 34  1  0  0  0  0
 35 36  1  0  0  0  0
 35 37  1  0  0  0  0
M  END
