 xtb: 6.7.1 (edcfbbe)
          06092518083D

 37 29  0     0  0            999 V2000
    0.7626   -0.1184    1.9024 N   0  0  0  0  0  0  0  0  0  0  0  0
    0.5279    1.1345    1.1650 C   0  0  0  0  0  0  0  0  0  0  0  0
   -0.4147    0.9039   -0.0144 C   0  0  0  0  0  0  0  0  0  0  0  0
    0.2435    0.2561   -1.2432 C   0  0  0  0  0  0  0  0  0  0  0  0
    0.4973   -1.2599   -1.1703 C   0  0  0  0  0  0  0  0  0  0  0  0
    0.0060   -1.9913   -2.0401 O   0  0  0  0  0  0  0  0  0  0  0  0
    1.2340   -1.6870   -0.2275 O   0  0  0  0  0  0  0  0  0  0  0  0
    1.5688   -0.0682    2.5702 H   0  0  0  0  0  0  0  0  0  0  0  0
   -0.0656   -0.3872    2.4316 H   0  0  0  0  0  0  0  0  0  0  0  0
    0.1091    1.8723    1.8487 H   0  0  0  0  0  0  0  0  0  0  0  0
    1.4801    1.5151    0.7971 H   0  0  0  0  0  0  0  0  0  0  0  0
   -0.8002    1.8721   -0.3346 H   0  0  0  0  0  0  0  0  0  0  0  0
   -1.2699    0.2996    0.2963 H   0  0  0  0  0  0  0  0  0  0  0  0
    1.2066    0.7337   -1.4405 H   0  0  0  0  0  0  0  0  0  0  0  0
   -0.3906    0.4074   -2.1191 H   0  0  0  0  0  0  0  0  0  0  0  0
    0.9759   -0.8580    1.1929 H   0  0  0  0  0  0  0  0  0  0  0  0
    3.6362    1.2940   -1.9211 O   0  0  0  0  0  0  0  0  0  0  0  0
    4.3980    1.2056   -2.5001 H   0  0  0  0  0  0  0  0  0  0  0  0
    3.7522    0.6357   -1.2069 H   0  0  0  0  0  0  0  0  0  0  0  0
    3.7382    1.6703    2.0593 O   0  0  0  0  0  0  0  0  0  0  0  0
    3.6380    2.4622    1.5133 H   0  0  0  0  0  0  0  0  0  0  0  0
    3.7114    0.9368    1.4139 H   0  0  0  0  0  0  0  0  0  0  0  0
    3.6387   -0.4284    0.2162 O   0  0  0  0  0  0  0  0  0  0  0  0
    4.1902   -1.1744    0.4758 H   0  0  0  0  0  0  0  0  0  0  0  0
    2.7598   -0.8182    0.0354 H   0  0  0  0  0  0  0  0  0  0  0  0
    3.1001    3.3389   -0.1234 O   0  0  0  0  0  0  0  0  0  0  0  0
    2.8499    4.1652   -0.5420 H   0  0  0  0  0  0  0  0  0  0  0  0
    3.2833    2.7041   -0.8406 H   0  0  0  0  0  0  0  0  0  0  0  0
    1.6752    1.7413    3.9863 O   0  0  0  0  0  0  0  0  0  0  0  0
    2.4333    1.8300    3.3790 H   0  0  0  0  0  0  0  0  0  0  0  0
    1.9985    1.2290    4.7324 H   0  0  0  0  0  0  0  0  0  0  0  0
    2.9430   -0.8585    3.3909 O   0  0  0  0  0  0  0  0  0  0  0  0
    3.0632   -1.6355    2.8175 H   0  0  0  0  0  0  0  0  0  0  0  0
    3.6705   -0.2577    3.1937 H   0  0  0  0  0  0  0  0  0  0  0  0
    3.0583   -2.9757    1.5139 O   0  0  0  0  0  0  0  0  0  0  0  0
    2.3703   -2.7834    0.8576 H   0  0  0  0  0  0  0  0  0  0  0  0
    2.9726   -3.9054    1.7381 H   0  0  0  0  0  0  0  0  0  0  0  0
  1  2  1  0  0  0  0
  2  3  1  0  0  0  0
  3  4  1  0  0  0  0
  4  5  1  0  0  0  0
  5  6  2  0  0  0  0
  5  7  4  0  0  0  0
  1  8  1  0  0  0  0
  1  9  1  0  0  0  0
  2 10  1  0  0  0  0
  2 11  1  0  0  0  0
  3 12  1  0  0  0  0
  3 13  1  0  0  0  0
  4 14  1  0  0  0  0
  4 15  1  0  0  0  0
  1 16  1  0  0  0  0
 17 18  1  0  0  0  0
 17 19  1  0  0  0  0
 20 21  1  0  0  0  0
 20 22  1  0  0  0  0
 23 24  1  0  0  0  0
 23 25  1  0  0  0  0
 26 27  1  0  0  0  0
 26 28  1  0  0  0  0
 29 30  1  0  0  0  0
 29 31  1  0  0  0  0
 32 33  1  0  0  0  0
 32 34  1  0  0  0  0
 35 36  1  0  0  0  0
 35 37  1  0  0  0  0
M  END
