 xtb: 6.7.1 (edcfbbe)
          06092518033D

 37 29  0     0  0            999 V2000
    0.8350    0.0971    1.6993 N   0  0  0  0  0  0  0  0  0  0  0  0
    0.2212    0.8137    0.5695 C   0  0  0  0  0  0  0  0  0  0  0  0
    1.2242    0.9357   -0.5770 C   0  0  0  0  0  0  0  0  0  0  0  0
    0.5376    1.2328   -1.9052 C   0  0  0  0  0  0  0  0  0  0  0  0
   -0.2072    0.0338   -2.5100 C   0  0  0  0  0  0  0  0  0  0  0  0
   -0.2192   -1.0575   -1.9032 O   0  0  0  0  0  0  0  0  0  0  0  0
   -0.7764    0.2269   -3.6157 O   0  0  0  0  0  0  0  0  0  0  0  0
    1.0269   -0.8737    1.3835 H   0  0  0  0  0  0  0  0  0  0  0  0
    1.7241    0.5582    1.9671 H   0  0  0  0  0  0  0  0  0  0  0  0
   -0.1049    1.8024    0.8915 H   0  0  0  0  0  0  0  0  0  0  0  0
   -0.6480    0.2542    0.2215 H   0  0  0  0  0  0  0  0  0  0  0  0
    1.7654   -0.0055   -0.6834 H   0  0  0  0  0  0  0  0  0  0  0  0
    1.9451    1.7241   -0.3616 H   0  0  0  0  0  0  0  0  0  0  0  0
   -0.1900    2.0418   -1.8080 H   0  0  0  0  0  0  0  0  0  0  0  0
    1.2614    1.5503   -2.6593 H   0  0  0  0  0  0  0  0  0  0  0  0
    0.2033    0.0697    2.5330 H   0  0  0  0  0  0  0  0  0  0  0  0
   -0.7272   -0.0639    3.9454 O   0  0  0  0  0  0  0  0  0  0  0  0
   -0.1847   -0.5522    4.5904 H   0  0  0  0  0  0  0  0  0  0  0  0
   -1.5827   -0.4998    3.9175 H   0  0  0  0  0  0  0  0  0  0  0  0
    0.9548   -1.5694    5.5861 O   0  0  0  0  0  0  0  0  0  0  0  0
    1.6770   -1.1797    6.0877 H   0  0  0  0  0  0  0  0  0  0  0  0
    1.2307   -2.4528    5.3233 H   0  0  0  0  0  0  0  0  0  0  0  0
    0.9407   -2.3141    0.3382 O   0  0  0  0  0  0  0  0  0  0  0  0
    0.5681   -1.9507   -0.4827 H   0  0  0  0  0  0  0  0  0  0  0  0
    0.4523   -3.1226    0.5160 H   0  0  0  0  0  0  0  0  0  0  0  0
   -2.3642   -1.5950   -4.9125 O   0  0  0  0  0  0  0  0  0  0  0  0
   -1.9423   -1.7022   -5.7711 H   0  0  0  0  0  0  0  0  0  0  0  0
   -1.8275   -0.9262   -4.4353 H   0  0  0  0  0  0  0  0  0  0  0  0
   -1.8517   -3.2057   -2.6179 O   0  0  0  0  0  0  0  0  0  0  0  0
   -1.2566   -2.4763   -2.3544 H   0  0  0  0  0  0  0  0  0  0  0  0
   -2.2570   -2.8864   -3.4387 H   0  0  0  0  0  0  0  0  0  0  0  0
   -0.2019    2.5806   -4.9224 O   0  0  0  0  0  0  0  0  0  0  0  0
   -0.4223    1.7325   -4.4866 H   0  0  0  0  0  0  0  0  0  0  0  0
   -0.9370    2.7690   -5.5144 H   0  0  0  0  0  0  0  0  0  0  0  0
    3.2047    1.4171    2.4070 O   0  0  0  0  0  0  0  0  0  0  0  0
    4.0284    0.9313    2.5059 H   0  0  0  0  0  0  0  0  0  0  0  0
    3.1954    2.1174    3.0662 H   0  0  0  0  0  0  0  0  0  0  0  0
  1  2  1  0  0  0  0
  2  3  1  0  0  0  0
  3  4  1  0  0  0  0
  4  5  1  0  0  0  0
  5  6  4  0  0  0  0
  5  7  4  0  0  0  0
  1  8  1  0  0  0  0
  1  9  1  0  0  0  0
  2 10  1  0  0  0  0
  2 11  1  0  0  0  0
  3 12  1  0  0  0  0
  3 13  1  0  0  0  0
  4 14  1  0  0  0  0
  4 15  1  0  0  0  0
  1 16  1  0  0  0  0
 17 18  1  0  0  0  0
 17 19  1  0  0  0  0
 20 21  1  0  0  0  0
 20 22  1  0  0  0  0
 23 24  1  0  0  0  0
 23 25  1  0  0  0  0
 26 27  1  0  0  0  0
 26 28  1  0  0  0  0
 29 30  1  0  0  0  0
 29 31  1  0  0  0  0
 32 33  1  0  0  0  0
 32 34  1  0  0  0  0
 35 36  1  0  0  0  0
 35 37  1  0  0  0  0
M  END
