          37
  Built with Packmol                                             
  N            0.058148       -0.927583        1.469607
  C            0.211959        0.510020        1.257389
  C           -0.420296        1.026601       -0.053995
  C            0.232909        0.510995       -1.351786
  C           -0.125253       -0.896436       -1.755618
  O            0.432585       -1.420882       -2.861979
  O           -0.947959       -1.551103       -1.137172
  H            0.428548       -1.166868        2.416841
  H           -0.951876       -1.193831        1.431538
  H           -0.278739        1.044785        2.100148
  H            1.291996        0.772629        1.278823
  H           -0.263312        2.127518       -0.038280
  H           -1.516957        0.851348       -0.073370
  H            1.334639        0.617682       -1.263614
  H           -0.104560        1.158543       -2.189480
  H            0.618166       -1.463418        0.770947
  O            2.019517       -2.155397        5.359011
  H            1.271320       -1.667306        4.931718
  H            1.627035       -2.538647        6.183444
  O            0.054243       -4.250092        1.996484
  H            0.266706       -4.702686        1.141715
  H           -0.046638       -3.295457        1.753361
  O           -2.212925       -3.398785        3.683778
  H           -2.500564       -2.932868        4.508882
  H           -1.664615       -2.730962        3.200062
  O            2.225314       -4.104607        0.379156
  H            3.085201       -3.648312        0.560816
  H            1.680499       -3.427408       -0.095388
  O            0.533785       -4.145706        4.159466
  H           -0.031949       -3.424336        4.533874
  H            1.292038       -4.219946        4.792042
  O            2.665026       -3.358975        3.281520
  H            2.500369       -2.384905        3.213070
  H            2.116318       -3.754766        2.558415
  O           -2.107807       -3.496383        0.991170
  H           -1.855448       -4.007703        0.181554
  H           -2.333680       -4.189149        1.661743
