          37
  Built with Packmol                                             
  N            0.058148       -0.927583        1.469607
  C            0.211959        0.510020        1.257389
  C           -0.420296        1.026601       -0.053995
  C            0.232909        0.510995       -1.351786
  C           -0.125253       -0.896436       -1.755618
  O            0.432585       -1.420882       -2.861979
  O           -0.947959       -1.551103       -1.137172
  H            0.428548       -1.166868        2.416841
  H           -0.951876       -1.193831        1.431538
  H           -0.278739        1.044785        2.100148
  H            1.291996        0.772629        1.278823
  H           -0.263312        2.127518       -0.038280
  H           -1.516957        0.851348       -0.073370
  H            1.334639        0.617682       -1.263614
  H           -0.104560        1.158543       -2.189480
  H            0.618166       -1.463418        0.770947
  O           -1.960500        3.628210        2.699606
  H           -2.000299        2.872600        3.338418
  H           -1.359726        4.286567        3.131172
  O           -2.601959        3.252770       -0.063725
  H           -2.091460        4.078020       -0.261122
  H           -3.059306        3.443079        0.793730
  O           -1.286295       -4.097540       -1.317244
  H           -2.111677       -3.885158       -0.813012
  H           -1.597675       -4.637392       -2.086799
  O           -1.057270       -5.416286        0.448193
  H           -1.659467       -4.914278        1.053137
  H           -0.220424       -4.886994        0.435886
  O            2.289677       -3.552358        4.776804
  H            1.684814       -2.783153        4.624898
  H            1.823542       -4.320507        4.360536
  O           -0.283310        3.678884        5.049365
  H           -0.878664        2.908674        5.230863
  H            0.277875        3.384747        4.288334
  O           -0.168093       -4.418032        3.340256
  H           -0.250381       -3.976697        2.457610
  H           -0.265644       -3.682133        3.995657
