          37
  Built with Packmol                                             
  N            0.058148       -0.927583        1.469607
  C            0.211959        0.510020        1.257389
  C           -0.420296        1.026601       -0.053995
  C            0.232909        0.510995       -1.351786
  C           -0.125253       -0.896436       -1.755618
  O            0.432585       -1.420882       -2.861979
  O           -0.947959       -1.551103       -1.137172
  H            0.428548       -1.166868        2.416841
  H           -0.951876       -1.193831        1.431538
  H           -0.278739        1.044785        2.100148
  H            1.291996        0.772629        1.278823
  H           -0.263312        2.127518       -0.038280
  H           -1.516957        0.851348       -0.073370
  H            1.334639        0.617682       -1.263614
  H           -0.104560        1.158543       -2.189480
  H            0.618166       -1.463418        0.770947
  O           -3.118601       -2.553114        4.206251
  H           -2.575204       -2.588514        5.033341
  H           -3.437266       -1.616738        4.158647
  O           -0.605421       -4.182665        4.473849
  H           -1.322730       -4.097118        3.796530
  H           -0.495584       -3.267509        4.835841
  O            1.950151       -3.628031        3.828084
  H            2.937199       -3.583446        3.894109
  H            1.731785       -4.576272        4.011845
  O            1.275366        3.389311        4.567564
  H            1.763995        2.558043        4.342072
  H            0.391881        3.078330        4.889056
  O            0.164848        0.729394        5.887653
  H            0.710400        0.358888        5.148931
  H           -0.587893        1.186654        5.434986
  O           -1.542576       -0.664363        4.723678
  H           -0.860226       -1.153337        5.248952
  H           -1.227362       -0.728155        3.787097
  O            2.559233       -1.607208        4.778512
  H            2.451896       -1.004987        5.557240
  H            2.775709       -1.002238        4.025011
