          37
  Built with Packmol                                             
  N            0.058148       -0.927583        1.469607
  C            0.211959        0.510020        1.257389
  C           -0.420296        1.026601       -0.053995
  C            0.232909        0.510995       -1.351786
  C           -0.125253       -0.896436       -1.755618
  O            0.432585       -1.420882       -2.861979
  O           -0.947959       -1.551103       -1.137172
  H            0.428548       -1.166868        2.416841
  H           -0.951876       -1.193831        1.431538
  H           -0.278739        1.044785        2.100148
  H            1.291996        0.772629        1.278823
  H           -0.263312        2.127518       -0.038280
  H           -1.516957        0.851348       -0.073370
  H            1.334639        0.617682       -1.263614
  H           -0.104560        1.158543       -2.189480
  H            0.618166       -1.463418        0.770947
  O            2.878605       -2.477504        4.030029
  H            3.196981       -1.785897        4.663218
  H            1.896187       -2.356035        4.003318
  O            3.117086        2.626756        1.062516
  H            3.797491        2.401243        0.379285
  H            2.882186        3.570622        0.876636
  O            2.438634        2.533895       -4.444189
  H            1.818502        3.297944       -4.333387
  H            3.185386        2.728438       -3.823603
  O            3.523396        1.528787        3.159225
  H            3.133051        0.923112        2.479961
  H            2.922091        1.444622        3.941505
  O            3.826619       -0.528570        0.375471
  H            3.849994       -0.807846        1.325244
  H            3.246956        0.274259        0.367130
  O            2.897649       -3.210499        1.488492
  H            2.997247       -3.836515        0.727706
  H            2.899718       -3.791901        2.290103
  O            2.962453       -1.788992       -3.857705
  H            2.557657       -2.406235       -4.517827
  H            3.070428       -0.936126       -4.349207
