          37
  Built with Packmol                                             
  N            0.058148       -0.927583        1.469607
  C            0.211959        0.510020        1.257389
  C           -0.420296        1.026601       -0.053995
  C            0.232909        0.510995       -1.351786
  C           -0.125253       -0.896436       -1.755618
  O            0.432585       -1.420882       -2.861979
  O           -0.947959       -1.551103       -1.137172
  H            0.428548       -1.166868        2.416841
  H           -0.951876       -1.193831        1.431538
  H           -0.278739        1.044785        2.100148
  H            1.291996        0.772629        1.278823
  H           -0.263312        2.127518       -0.038280
  H           -1.516957        0.851348       -0.073370
  H            1.334639        0.617682       -1.263614
  H           -0.104560        1.158543       -2.189480
  H            0.618166       -1.463418        0.770947
  O            0.939833        3.843087        4.275121
  H            0.672571        4.676606        4.738183
  H            0.095135        3.483964        3.903462
  O            1.702300       -3.595577        3.656435
  H            1.505183       -4.519092        3.358316
  H            1.565205       -3.616799        4.636929
  O            0.985243       -1.442974        5.127529
  H            0.172099       -2.005732        5.179604
  H            0.848581       -0.745163        5.816729
  O           -1.873837       -0.704631        5.280823
  H           -1.991941       -1.683860        5.368987
  H           -1.344748       -0.592232        4.451339
  O           -2.713512        2.161443        4.261946
  H           -2.537992        1.327525        4.766311
  H           -2.716708        1.880985        3.312238
  O            2.937537        0.201523        4.652874
  H            2.367481        0.777004        4.083254
  H            2.683035        0.439897        5.579707
  O            0.431458        1.751636        5.841520
  H            0.037559        1.554043        4.954721
  H            1.311442        2.157270        5.637309
