          37
  Built with Packmol                                             
  N            0.058148       -0.927583        1.469607
  C            0.211959        0.510020        1.257389
  C           -0.420296        1.026601       -0.053995
  C            0.232909        0.510995       -1.351786
  C           -0.125253       -0.896436       -1.755618
  O            0.432585       -1.420882       -2.861979
  O           -0.947959       -1.551103       -1.137172
  H            0.428548       -1.166868        2.416841
  H           -0.951876       -1.193831        1.431538
  H           -0.278739        1.044785        2.100148
  H            1.291996        0.772629        1.278823
  H           -0.263312        2.127518       -0.038280
  H           -1.516957        0.851348       -0.073370
  H            1.334639        0.617682       -1.263614
  H           -0.104560        1.158543       -2.189480
  H            0.618166       -1.463418        0.770947
  O           -2.542703       -3.453297       -1.754775
  H           -2.695388       -2.517375       -2.039990
  H           -1.578267       -3.608087       -1.917611
  O           -0.593557        2.182232        6.329801
  H           -1.111171        2.337654        5.500024
  H           -0.502835        1.197676        6.384877
  O            1.446588       -1.600874        5.994014
  H            2.100441       -0.872799        5.842379
  H            0.833957       -1.244140        6.685416
  O            2.205166       -2.905876       -1.297253
  H            2.205099       -1.921807       -1.186719
  H            1.249890       -3.143506       -1.404927
  O           -2.740295        1.129630       -3.805221
  H           -2.964501        1.749384       -3.066136
  H           -3.102555        0.255152       -3.514242
  O           -1.049305       -2.750875        3.762817
  H           -0.368028       -2.312339        4.332167
  H           -0.529186       -3.350652        3.170908
  O           -1.907778        3.207761        3.047046
  H           -1.484964        3.816147        2.390003
  H           -2.521516        2.648129        2.507832
