          37
  Built with Packmol                                             
  N            0.058148       -0.927583        1.469607
  C            0.211959        0.510020        1.257389
  C           -0.420296        1.026601       -0.053995
  C            0.232909        0.510995       -1.351786
  C           -0.125253       -0.896436       -1.755618
  O            0.432585       -1.420882       -2.861979
  O           -0.947959       -1.551103       -1.137172
  H            0.428548       -1.166868        2.416841
  H           -0.951876       -1.193831        1.431538
  H           -0.278739        1.044785        2.100148
  H            1.291996        0.772629        1.278823
  H           -0.263312        2.127518       -0.038280
  H           -1.516957        0.851348       -0.073370
  H            1.334639        0.617682       -1.263614
  H           -0.104560        1.158543       -2.189480
  H            0.618166       -1.463418        0.770947
  O           -1.404521        2.413786       -5.551491
  H           -1.905986        1.964359       -4.825434
  H           -0.743673        2.982199       -5.081596
  O           -0.479623       -4.148194       -5.024099
  H           -1.466526       -4.201514       -4.962532
  H           -0.220159       -3.515716       -4.307675
  O           -2.903762       -4.026350       -1.124096
  H           -2.445571       -3.180144       -1.357778
  H           -2.171677       -4.642993       -0.870292
  O           -4.003579        0.214031        2.642339
  H           -3.463599        0.764065        2.020651
  H           -3.410594       -0.541217        2.884373
  O            1.998822       -3.917893       -1.362593
  H            2.203077       -4.426831       -2.187136
  H            2.594170       -3.127712       -1.404881
  O           -3.457303       -1.628902       -0.175650
  H           -2.872030       -0.848633       -0.346664
  H           -4.068786       -1.655718       -0.954098
  O            0.097386        4.676994       -2.158665
  H            0.679857        5.285531       -2.679262
  H           -0.820213        5.011242       -2.322689
