          37
  Built with Packmol                                             
  N            0.058148       -0.927583        1.469607
  C            0.211959        0.510020        1.257389
  C           -0.420296        1.026601       -0.053995
  C            0.232909        0.510995       -1.351786
  C           -0.125253       -0.896436       -1.755618
  O            0.432585       -1.420882       -2.861979
  O           -0.947959       -1.551103       -1.137172
  H            0.428548       -1.166868        2.416841
  H           -0.951876       -1.193831        1.431538
  H           -0.278739        1.044785        2.100148
  H            1.291996        0.772629        1.278823
  H           -0.263312        2.127518       -0.038280
  H           -1.516957        0.851348       -0.073370
  H            1.334639        0.617682       -1.263614
  H           -0.104560        1.158543       -2.189480
  H            0.618166       -1.463418        0.770947
  O            3.314574       -3.049342        0.146628
  H            2.412087       -2.800724       -0.176355
  H            3.628873       -3.732981       -0.497163
  O            1.715576       -3.956071        4.226930
  H            2.509135       -3.367029        4.289425
  H            1.980632       -4.662161        3.585217
  O            2.363678       -2.126719        1.932504
  H            3.056057       -2.024490        2.633055
  H            1.812026       -2.890073        2.238415
  O            1.086868       -4.328798        0.691082
  H            1.988602       -4.654095        0.939413
  H            0.477611       -4.771646        1.333969
  O            3.802876       -0.901238       -0.803008
  H            2.905018       -0.924145       -1.220065
  H            3.721861       -0.233575       -0.076181
  O            1.526910       -1.647664        5.399337
  H            1.315946       -2.458668        5.926952
  H            0.809106       -1.600763        4.718771
  O            2.159256       -3.329280       -3.237675
  H            1.208013       -3.520038       -3.039284
  H            2.568084       -3.158904       -2.351986
