 xtb: 6.7.1 (edcfbbe)
          06092518063D

 37 29  0     0  0            999 V2000
   -0.6115   -1.4832    0.7988 N   0  0  0  0  0  0  0  0  0  0  0  0
    0.1512   -0.2841    1.1696 C   0  0  0  0  0  0  0  0  0  0  0  0
   -0.0933    0.8640    0.1877 C   0  0  0  0  0  0  0  0  0  0  0  0
   -0.0694    0.4428   -1.2898 C   0  0  0  0  0  0  0  0  0  0  0  0
    1.1160   -0.4799   -1.6578 C   0  0  0  0  0  0  0  0  0  0  0  0
    2.1352    0.0256   -2.1567 O   0  0  0  0  0  0  0  0  0  0  0  0
    0.9533   -1.7129   -1.4394 O   0  0  0  0  0  0  0  0  0  0  0  0
   -0.5057   -2.2549    1.4994 H   0  0  0  0  0  0  0  0  0  0  0  0
   -1.6266   -1.2953    0.6833 H   0  0  0  0  0  0  0  0  0  0  0  0
   -0.1222    0.0332    2.1760 H   0  0  0  0  0  0  0  0  0  0  0  0
    1.2128   -0.5406    1.1603 H   0  0  0  0  0  0  0  0  0  0  0  0
    0.6765    1.6193    0.3519 H   0  0  0  0  0  0  0  0  0  0  0  0
   -1.0615    1.3246    0.3887 H   0  0  0  0  0  0  0  0  0  0  0  0
   -0.9920   -0.0780   -1.5503 H   0  0  0  0  0  0  0  0  0  0  0  0
    0.0139    1.3353   -1.9120 H   0  0  0  0  0  0  0  0  0  0  0  0
   -0.2123   -1.8147   -0.1048 H   0  0  0  0  0  0  0  0  0  0  0  0
   -1.3374   -3.2424   -1.8654 O   0  0  0  0  0  0  0  0  0  0  0  0
   -1.8691   -2.4361   -1.9255 H   0  0  0  0  0  0  0  0  0  0  0  0
   -0.4166   -2.9338   -1.8556 H   0  0  0  0  0  0  0  0  0  0  0  0
   -3.3610   -1.3680    0.3347 O   0  0  0  0  0  0  0  0  0  0  0  0
   -4.0964   -0.9046    0.7421 H   0  0  0  0  0  0  0  0  0  0  0  0
   -3.4061   -1.1964   -0.6255 H   0  0  0  0  0  0  0  0  0  0  0  0
   -3.3453   -2.9592   -4.0651 O   0  0  0  0  0  0  0  0  0  0  0  0
   -2.8201   -3.5935   -3.5588 H   0  0  0  0  0  0  0  0  0  0  0  0
   -2.8199   -2.7516   -4.8556 H   0  0  0  0  0  0  0  0  0  0  0  0
   -1.5313   -2.3621   -6.1545 O   0  0  0  0  0  0  0  0  0  0  0  0
   -0.9899   -3.0540   -6.5463 H   0  0  0  0  0  0  0  0  0  0  0  0
   -0.9983   -1.5615   -6.1363 H   0  0  0  0  0  0  0  0  0  0  0  0
   -3.2147   -0.8747   -2.3593 O   0  0  0  0  0  0  0  0  0  0  0  0
   -3.4004   -1.6089   -2.9883 H   0  0  0  0  0  0  0  0  0  0  0  0
   -3.5932   -0.0864   -2.7570 H   0  0  0  0  0  0  0  0  0  0  0  0
   -0.5612   -3.7254    2.3540 O   0  0  0  0  0  0  0  0  0  0  0  0
   -1.3284   -4.0220    1.8105 H   0  0  0  0  0  0  0  0  0  0  0  0
    0.1403   -4.3640    2.2054 H   0  0  0  0  0  0  0  0  0  0  0  0
   -2.5034   -4.0720    0.5212 O   0  0  0  0  0  0  0  0  0  0  0  0
   -3.0105   -3.2449    0.5802 H   0  0  0  0  0  0  0  0  0  0  0  0
   -2.0404   -4.0016   -0.3346 H   0  0  0  0  0  0  0  0  0  0  0  0
  1  2  1  0  0  0  0
  2  3  1  0  0  0  0
  3  4  1  0  0  0  0
  4  5  1  0  0  0  0
  5  6  2  0  0  0  0
  5  7  4  0  0  0  0
  1  8  1  0  0  0  0
  1  9  1  0  0  0  0
  2 10  1  0  0  0  0
  2 11  1  0  0  0  0
  3 12  1  0  0  0  0
  3 13  1  0  0  0  0
  4 14  1  0  0  0  0
  4 15  1  0  0  0  0
  1 16  1  0  0  0  0
 17 18  1  0  0  0  0
 17 19  1  0  0  0  0
 20 21  1  0  0  0  0
 20 22  1  0  0  0  0
 23 24  1  0  0  0  0
 23 25  1  0  0  0  0
 26 27  1  0  0  0  0
 26 28  1  0  0  0  0
 29 30  1  0  0  0  0
 29 31  1  0  0  0  0
 32 33  1  0  0  0  0
 32 34  1  0  0  0  0
 35 36  1  0  0  0  0
 35 37  1  0  0  0  0
M  END
