 xtb: 6.7.1 (edcfbbe)
          06092517583D

 34 26  0     0  0            999 V2000
    1.6777    0.1284   -0.7498 H   0  0  0  0  0  0  0  0  0  0  0  0
    0.8642   -0.5969   -0.8000 C   0  0  0  0  0  0  0  0  0  0  0  0
   -0.0143    0.5025   -2.3374 H   0  0  0  0  0  0  0  0  0  0  0  0
    1.1940   -1.4790   -1.3505 H   0  0  0  0  0  0  0  0  0  0  0  0
   -0.2925    0.0125   -1.4884 N   0  0  0  0  0  0  0  0  0  0  0  0
    1.3016   -1.4393    1.1426 H   0  0  0  0  0  0  0  0  0  0  0  0
    0.4596   -0.9956    0.6141 C   0  0  0  0  0  0  0  0  0  0  0  0
   -0.6095    1.1447    0.8905 O   0  0  0  0  0  0  0  0  0  0  0  0
   -0.0599    0.1800    1.4639 C   0  0  0  0  0  0  0  0  0  0  0  0
   -0.6963    0.6788   -0.7913 H   0  0  0  0  0  0  0  0  0  0  0  0
    0.0799    0.0841    2.7091 O   0  0  0  0  0  0  0  0  0  0  0  0
   -0.9940   -0.7364   -1.7363 H   0  0  0  0  0  0  0  0  0  0  0  0
   -0.3412   -1.7379    0.5894 H   0  0  0  0  0  0  0  0  0  0  0  0
   -1.3510   -3.6376    1.8113 O   0  0  0  0  0  0  0  0  0  0  0  0
   -0.8420   -3.2297    2.5422 H   0  0  0  0  0  0  0  0  0  0  0  0
   -2.1185   -4.0497    2.2188 H   0  0  0  0  0  0  0  0  0  0  0  0
    0.2668   -5.0423    0.0857 O   0  0  0  0  0  0  0  0  0  0  0  0
   -0.3242   -4.5562    0.6941 H   0  0  0  0  0  0  0  0  0  0  0  0
    1.0125   -5.3393    0.6145 H   0  0  0  0  0  0  0  0  0  0  0  0
    1.1628    0.5869   -6.7586 O   0  0  0  0  0  0  0  0  0  0  0  0
    1.0388   -0.3669   -6.7123 H   0  0  0  0  0  0  0  0  0  0  0  0
    0.5081    0.9276   -7.3755 H   0  0  0  0  0  0  0  0  0  0  0  0
    0.4990   -3.5724   -2.2070 O   0  0  0  0  0  0  0  0  0  0  0  0
    0.4331   -4.1095   -1.3919 H   0  0  0  0  0  0  0  0  0  0  0  0
    0.7715   -4.1735   -2.9052 H   0  0  0  0  0  0  0  0  0  0  0  0
   -1.4021    0.1595    5.0597 O   0  0  0  0  0  0  0  0  0  0  0  0
   -1.0889    0.8824    5.6113 H   0  0  0  0  0  0  0  0  0  0  0  0
   -0.9539    0.2685    4.2022 H   0  0  0  0  0  0  0  0  0  0  0  0
   -0.0138   -2.3722    3.8368 O   0  0  0  0  0  0  0  0  0  0  0  0
   -0.5094   -2.1705    4.6387 H   0  0  0  0  0  0  0  0  0  0  0  0
    0.1426   -1.4946    3.4245 H   0  0  0  0  0  0  0  0  0  0  0  0
   -1.7974   -2.1188   -2.1897 O   0  0  0  0  0  0  0  0  0  0  0  0
   -1.0103   -2.6996   -2.2858 H   0  0  0  0  0  0  0  0  0  0  0  0
   -2.3541   -2.5265   -1.5216 H   0  0  0  0  0  0  0  0  0  0  0  0
  1  2  1  0  0  0  0
  2  4  1  0  0  0  0
  2  5  1  0  0  0  0
  3  5  1  0  0  0  0
  2  7  1  0  0  0  0
  6  7  1  0  0  0  0
  7  9  1  0  0  0  0
  8  9  4  0  0  0  0
  5 10  1  0  0  0  0
  9 11  4  0  0  0  0
  5 12  1  0  0  0  0
  7 13  1  0  0  0  0
 14 15  1  0  0  0  0
 14 16  1  0  0  0  0
 17 18  1  0  0  0  0
 17 19  1  0  0  0  0
 20 21  1  0  0  0  0
 20 22  1  0  0  0  0
 23 24  1  0  0  0  0
 23 25  1  0  0  0  0
 26 27  1  0  0  0  0
 26 28  1  0  0  0  0
 29 30  1  0  0  0  0
 29 31  1  0  0  0  0
 32 33  1  0  0  0  0
 32 34  1  0  0  0  0
M  END
