 xtb: 6.7.1 (edcfbbe)
          06092518053D

 37 29  0     0  0            999 V2000
   -0.6503    0.3381    1.3945 N   0  0  0  0  0  0  0  0  0  0  0  0
    0.2771    0.6037    0.2782 C   0  0  0  0  0  0  0  0  0  0  0  0
   -0.4675    1.0571   -0.9764 C   0  0  0  0  0  0  0  0  0  0  0  0
   -1.7361    0.2510   -1.3060 C   0  0  0  0  0  0  0  0  0  0  0  0
   -1.6224   -1.2768   -1.1381 C   0  0  0  0  0  0  0  0  0  0  0  0
   -1.5962   -1.9872   -2.1642 O   0  0  0  0  0  0  0  0  0  0  0  0
   -1.6076   -1.7281    0.0352 O   0  0  0  0  0  0  0  0  0  0  0  0
   -0.1357    0.1391    2.2781 H   0  0  0  0  0  0  0  0  0  0  0  0
   -1.2780    1.1273    1.5487 H   0  0  0  0  0  0  0  0  0  0  0  0
    0.9911    1.3747    0.5653 H   0  0  0  0  0  0  0  0  0  0  0  0
    0.8211   -0.3178    0.0681 H   0  0  0  0  0  0  0  0  0  0  0  0
    0.2251    0.9981   -1.8163 H   0  0  0  0  0  0  0  0  0  0  0  0
   -0.7650    2.1022   -0.8736 H   0  0  0  0  0  0  0  0  0  0  0  0
   -2.5638    0.5672   -0.6663 H   0  0  0  0  0  0  0  0  0  0  0  0
   -2.0190    0.4390   -2.3426 H   0  0  0  0  0  0  0  0  0  0  0  0
   -1.2004   -0.5165    1.0996 H   0  0  0  0  0  0  0  0  0  0  0  0
    1.0632    3.6778   -5.4890 O   0  0  0  0  0  0  0  0  0  0  0  0
    0.2008    3.5165   -5.8823 H   0  0  0  0  0  0  0  0  0  0  0  0
    1.6818    3.8391   -6.2093 H   0  0  0  0  0  0  0  0  0  0  0  0
    0.6540   -0.0883    3.8027 O   0  0  0  0  0  0  0  0  0  0  0  0
    1.6007    0.0493    3.9122 H   0  0  0  0  0  0  0  0  0  0  0  0
    0.4167   -0.8666    4.3122 H   0  0  0  0  0  0  0  0  0  0  0  0
   -1.5213   -4.5853   -1.2446 O   0  0  0  0  0  0  0  0  0  0  0  0
   -1.5497   -3.7068   -1.6822 H   0  0  0  0  0  0  0  0  0  0  0  0
   -1.6089   -4.3884   -0.3050 H   0  0  0  0  0  0  0  0  0  0  0  0
    2.9254   -0.2182   -4.8866 O   0  0  0  0  0  0  0  0  0  0  0  0
    2.2212   -0.8698   -4.9100 H   0  0  0  0  0  0  0  0  0  0  0  0
    2.5919    0.5185   -4.3388 H   0  0  0  0  0  0  0  0  0  0  0  0
    5.3223   -0.8053    0.1745 O   0  0  0  0  0  0  0  0  0  0  0  0
    4.4727   -1.2811    0.1762 H   0  0  0  0  0  0  0  0  0  0  0  0
    5.4303   -0.4631   -0.7190 H   0  0  0  0  0  0  0  0  0  0  0  0
    2.9315   -2.3266   -0.0075 O   0  0  0  0  0  0  0  0  0  0  0  0
    2.7958   -2.9867    0.6812 H   0  0  0  0  0  0  0  0  0  0  0  0
    2.8914   -2.7939   -0.8478 H   0  0  0  0  0  0  0  0  0  0  0  0
    1.9639    1.9805   -3.4469 O   0  0  0  0  0  0  0  0  0  0  0  0
    2.6692    2.4779   -3.0197 H   0  0  0  0  0  0  0  0  0  0  0  0
    1.5915    2.5792   -4.1123 H   0  0  0  0  0  0  0  0  0  0  0  0
  1  2  1  0  0  0  0
  2  3  1  0  0  0  0
  3  4  1  0  0  0  0
  4  5  1  0  0  0  0
  5  6  4  0  0  0  0
  5  7  4  0  0  0  0
  1  8  1  0  0  0  0
  1  9  1  0  0  0  0
  2 10  1  0  0  0  0
  2 11  1  0  0  0  0
  3 12  1  0  0  0  0
  3 13  1  0  0  0  0
  4 14  1  0  0  0  0
  4 15  1  0  0  0  0
  1 16  1  0  0  0  0
 17 18  1  0  0  0  0
 17 19  1  0  0  0  0
 20 21  1  0  0  0  0
 20 22  1  0  0  0  0
 23 24  1  0  0  0  0
 23 25  1  0  0  0  0
 26 27  1  0  0  0  0
 26 28  1  0  0  0  0
 29 30  1  0  0  0  0
 29 31  1  0  0  0  0
 32 33  1  0  0  0  0
 32 34  1  0  0  0  0
 35 36  1  0  0  0  0
 35 37  1  0  0  0  0
M  END
