 xtb: 6.7.1 (edcfbbe)
          06092518083D

 37 29  0     0  0            999 V2000
    0.6448   -1.1619    1.2744 N   0  0  0  0  0  0  0  0  0  0  0  0
    0.3105    0.2485    1.0268 C   0  0  0  0  0  0  0  0  0  0  0  0
   -0.5271    0.3994   -0.2428 C   0  0  0  0  0  0  0  0  0  0  0  0
    0.2710    0.3398   -1.5524 C   0  0  0  0  0  0  0  0  0  0  0  0
    0.6475   -1.0524   -2.0819 C   0  0  0  0  0  0  0  0  0  0  0  0
    0.6421   -1.2132   -3.3258 O   0  0  0  0  0  0  0  0  0  0  0  0
    0.9669   -1.9536   -1.2754 O   0  0  0  0  0  0  0  0  0  0  0  0
    1.4285   -1.2839    1.9583 H   0  0  0  0  0  0  0  0  0  0  0  0
   -0.1658   -1.6909    1.6319 H   0  0  0  0  0  0  0  0  0  0  0  0
   -0.2445    0.6414    1.8786 H   0  0  0  0  0  0  0  0  0  0  0  0
    1.2332    0.8208    0.9229 H   0  0  0  0  0  0  0  0  0  0  0  0
   -1.0203    1.3713   -0.2156 H   0  0  0  0  0  0  0  0  0  0  0  0
   -1.3051   -0.3646   -0.2608 H   0  0  0  0  0  0  0  0  0  0  0  0
    1.2134    0.8846   -1.4454 H   0  0  0  0  0  0  0  0  0  0  0  0
   -0.2921    0.8289   -2.3493 H   0  0  0  0  0  0  0  0  0  0  0  0
    0.9112   -1.5899    0.3561 H   0  0  0  0  0  0  0  0  0  0  0  0
   -1.3977   -2.8227    2.4146 O   0  0  0  0  0  0  0  0  0  0  0  0
   -1.8169   -2.5541    3.2384 H   0  0  0  0  0  0  0  0  0  0  0  0
   -2.0330   -3.3541    1.9272 H   0  0  0  0  0  0  0  0  0  0  0  0
   -0.7477    0.5615   -4.9132 O   0  0  0  0  0  0  0  0  0  0  0  0
   -0.4313    0.4877   -5.8189 H   0  0  0  0  0  0  0  0  0  0  0  0
   -0.2402   -0.0985   -4.3999 H   0  0  0  0  0  0  0  0  0  0  0  0
    1.4774   -4.4726   -0.1504 O   0  0  0  0  0  0  0  0  0  0  0  0
    1.2783   -3.6780   -0.6718 H   0  0  0  0  0  0  0  0  0  0  0  0
    2.2104   -4.9060   -0.5935 H   0  0  0  0  0  0  0  0  0  0  0  0
    2.5965   -1.8557    3.0454 O   0  0  0  0  0  0  0  0  0  0  0  0
    3.5018   -1.9788    2.7495 H   0  0  0  0  0  0  0  0  0  0  0  0
    2.1800   -2.7483    3.0527 H   0  0  0  0  0  0  0  0  0  0  0  0
   -3.9851   -3.8555   -2.9949 O   0  0  0  0  0  0  0  0  0  0  0  0
   -3.9734   -2.8929   -3.0159 H   0  0  0  0  0  0  0  0  0  0  0  0
   -3.1314   -4.1419   -2.6527 H   0  0  0  0  0  0  0  0  0  0  0  0
    1.7202   -3.5170   -4.4193 O   0  0  0  0  0  0  0  0  0  0  0  0
    1.3735   -2.6975   -4.0122 H   0  0  0  0  0  0  0  0  0  0  0  0
    1.0834   -3.7594   -5.0990 H   0  0  0  0  0  0  0  0  0  0  0  0
    1.1656   -4.0953    2.5861 O   0  0  0  0  0  0  0  0  0  0  0  0
    0.2510   -3.7694    2.6200 H   0  0  0  0  0  0  0  0  0  0  0  0
    1.3144   -4.3182    1.6488 H   0  0  0  0  0  0  0  0  0  0  0  0
  1  2  1  0  0  0  0
  2  3  1  0  0  0  0
  3  4  1  0  0  0  0
  4  5  1  0  0  0  0
  5  6  4  0  0  0  0
  5  7  4  0  0  0  0
  1  8  1  0  0  0  0
  1  9  1  0  0  0  0
  2 10  1  0  0  0  0
  2 11  1  0  0  0  0
  3 12  1  0  0  0  0
  3 13  1  0  0  0  0
  4 14  1  0  0  0  0
  4 15  1  0  0  0  0
  1 16  1  0  0  0  0
 17 18  1  0  0  0  0
 17 19  1  0  0  0  0
 20 21  1  0  0  0  0
 20 22  1  0  0  0  0
 23 24  1  0  0  0  0
 23 25  1  0  0  0  0
 26 27  1  0  0  0  0
 26 28  1  0  0  0  0
 29 30  1  0  0  0  0
 29 31  1  0  0  0  0
 32 33  1  0  0  0  0
 32 34  1  0  0  0  0
 35 36  1  0  0  0  0
 35 37  1  0  0  0  0
M  END
