          37
  Built with Packmol                                             
  N            0.064952       -0.170366        2.240690
  C           -0.425087       -0.283877        0.868279
  C            0.367730        0.641149       -0.071166
  C           -0.134429        0.597594       -1.523145
  C            0.096668       -0.713488       -2.230733
  O            0.727246       -1.739965       -1.628533
  O           -0.270635       -0.838959       -3.387000
  H            1.072330       -0.447205        2.286531
  H           -0.048728        0.810713        2.583748
  H           -1.501047       -0.002735        0.840683
  H           -0.338388       -1.340879        0.545678
  H            1.449826        0.389794       -0.041707
  H            0.245710        1.683089        0.295720
  H           -1.217927        0.840241       -1.535888
  H            0.400055        1.383318       -2.098747
  H           -0.488277       -0.808425        2.855591
  O           -2.703148        2.882560       -4.755695
  H           -2.692626        2.162106       -4.076397
  H           -1.820895        2.816966       -5.200599
  O            2.260570       -3.341894        0.468206
  H            3.091497       -2.814507        0.358508
  H            2.456729       -3.961371        1.215456
  O            2.804750       -3.123961       -3.153354
  H            1.819787       -3.021725       -3.155699
  H            3.110704       -2.562085       -2.397510
  O           -3.169383       -2.434912       -3.316795
  H           -2.796526       -2.846552       -2.496954
  H           -2.381904       -2.280210       -3.896930
  O           -3.015911       -0.198937       -3.411131
  H           -3.515349        0.164789       -4.185002
  H           -3.149840        0.469616       -2.693000
  O            2.466529        2.328134       -3.481053
  H            3.163007        1.790479       -3.026679
  H            2.613983        3.251526       -3.155141
  O            2.244627       -2.502741        3.191457
  H            2.390877       -3.453406        3.426952
  H            3.134554       -2.081344        3.296652
