          37
  Built with Packmol                                             
  N            0.064952       -0.170366        2.240690
  C           -0.425087       -0.283877        0.868279
  C            0.367730        0.641149       -0.071166
  C           -0.134429        0.597594       -1.523145
  C            0.096668       -0.713488       -2.230733
  O            0.727246       -1.739965       -1.628533
  O           -0.270635       -0.838959       -3.387000
  H            1.072330       -0.447205        2.286531
  H           -0.048728        0.810713        2.583748
  H           -1.501047       -0.002735        0.840683
  H           -0.338388       -1.340879        0.545678
  H            1.449826        0.389794       -0.041707
  H            0.245710        1.683089        0.295720
  H           -1.217927        0.840241       -1.535888
  H            0.400055        1.383318       -2.098747
  H           -0.488277       -0.808425        2.855591
  O            0.456117       -3.066737        3.631945
  H            0.990831       -2.233288        3.639360
  H           -0.131632       -2.977388        2.839998
  O            2.156912       -2.889438        5.385160
  H            1.734727       -3.778316        5.274409
  H            2.837629       -2.846906        4.667226
  O            0.808460       -3.710965        0.403093
  H            1.009566       -4.612149        0.760913
  H           -0.113891       -3.522261        0.710133
  O           -1.669574       -2.287774        5.358783
  H           -1.644595       -1.418924        4.884351
  H           -1.533666       -2.962968        4.647268
  O            0.421128       -1.009370        5.998835
  H            1.388239       -0.877711        5.831587
  H            0.334502       -1.973405        6.207991
  O            2.888453       -2.711636        1.817974
  H            2.154127       -3.307303        2.112181
  H            2.746250       -1.873250        2.325419
  O           -2.302721       -3.244305        2.606084
  H           -2.365085       -2.265083        2.739675
  H           -2.097975       -3.350784        1.643091
