          37
  Built with Packmol                                             
  N            0.064952       -0.170366        2.240690
  C           -0.425087       -0.283877        0.868279
  C            0.367730        0.641149       -0.071166
  C           -0.134429        0.597594       -1.523145
  C            0.096668       -0.713488       -2.230733
  O            0.727246       -1.739965       -1.628533
  O           -0.270635       -0.838959       -3.387000
  H            1.072330       -0.447205        2.286531
  H           -0.048728        0.810713        2.583748
  H           -1.501047       -0.002735        0.840683
  H           -0.338388       -1.340879        0.545678
  H            1.449826        0.389794       -0.041707
  H            0.245710        1.683089        0.295720
  H           -1.217927        0.840241       -1.535888
  H            0.400055        1.383318       -2.098747
  H           -0.488277       -0.808425        2.855591
  O           -3.423951       -2.852892       -2.515938
  H           -2.621184       -3.007986       -3.074618
  H           -3.079265       -2.827513       -1.587950
  O           -2.244506        1.629947        4.596894
  H           -1.744622        2.463528        4.407500
  H           -3.041361        1.679986        4.011120
  O            3.799540       -0.319717       -3.363248
  H            3.962249       -1.294236       -3.296545
  H            3.056322       -0.236126       -4.012288
  O           -0.265583       -3.039405        4.463465
  H           -0.151546       -3.929362        4.044439
  H            0.545533       -2.535723        4.200769
  O           -1.565319       -3.508976        1.585660
  H           -1.652471       -2.791594        2.262696
  H           -1.240025       -4.293101        2.095507
  O           -4.002739       -1.087214       -0.673592
  H           -3.013589       -1.042631       -0.687881
  H           -4.279562       -0.739748       -1.558606
  O            0.490759       -3.721625        1.273978
  H            0.596521       -3.512162        2.236033
  H            1.366892       -4.095763        1.003748
