          37
  Built with Packmol                                             
  N            0.064952       -0.170366        2.240690
  C           -0.425087       -0.283877        0.868279
  C            0.367730        0.641149       -0.071166
  C           -0.134429        0.597594       -1.523145
  C            0.096668       -0.713488       -2.230733
  O            0.727246       -1.739965       -1.628533
  O           -0.270635       -0.838959       -3.387000
  H            1.072330       -0.447205        2.286531
  H           -0.048728        0.810713        2.583748
  H           -1.501047       -0.002735        0.840683
  H           -0.338388       -1.340879        0.545678
  H            1.449826        0.389794       -0.041707
  H            0.245710        1.683089        0.295720
  H           -1.217927        0.840241       -1.535888
  H            0.400055        1.383318       -2.098747
  H           -0.488277       -0.808425        2.855591
  O            3.468921       -2.046583        2.153968
  H            4.235974       -2.381930        1.625023
  H            2.671737       -2.306115        1.626944
  O            1.842318        1.316603        4.995236
  H            1.820717        0.879597        4.106883
  H            2.790229        1.260737        5.276229
  O            2.379380       -1.315758        5.367408
  H            2.695292       -1.536043        6.279704
  H            3.152861       -0.871231        4.937600
  O            2.533803        2.674443       -1.937467
  H            1.817927        3.358303       -1.915844
  H            2.529725        2.340392       -2.869672
  O           -4.267200       -0.707122       -0.090718
  H           -3.514380       -0.716033       -0.733985
  H           -4.264668        0.210532        0.281462
  O           -1.688299       -3.274044        2.896534
  H           -1.616254       -3.244072        1.909356
  H           -2.131009       -2.422077        3.138965
  O           -0.054878       -1.521292        6.236569
  H            0.191699       -1.094089        5.377902
  H           -0.050897       -0.779693        6.892791
