          37
  Built with Packmol                                             
  N            0.064952       -0.170366        2.240690
  C           -0.425087       -0.283877        0.868279
  C            0.367730        0.641149       -0.071166
  C           -0.134429        0.597594       -1.523145
  C            0.096668       -0.713488       -2.230733
  O            0.727246       -1.739965       -1.628533
  O           -0.270635       -0.838959       -3.387000
  H            1.072330       -0.447205        2.286531
  H           -0.048728        0.810713        2.583748
  H           -1.501047       -0.002735        0.840683
  H           -0.338388       -1.340879        0.545678
  H            1.449826        0.389794       -0.041707
  H            0.245710        1.683089        0.295720
  H           -1.217927        0.840241       -1.535888
  H            0.400055        1.383318       -2.098747
  H           -0.488277       -0.808425        2.855591
  O           -1.410944        2.523587       -3.949594
  H           -2.345793        2.205639       -3.874910
  H           -1.324966        3.209949       -3.240985
  O            0.016957        4.418980       -1.149454
  H           -0.742833        3.887547       -0.801734
  H            0.608806        3.752662       -1.581135
  O           -1.702165        1.738172        5.410838
  H           -2.530406        2.276084        5.483493
  H           -1.077978        2.155299        6.056601
  O           -0.715067       -0.345075       -7.203405
  H           -0.248981        0.218599       -7.870972
  H           -1.361508       -0.875101       -7.734254
  O            1.356361        0.331928        7.141533
  H            0.960501        1.164196        7.503797
  H            1.044512       -0.379126        7.756160
  O           -1.463730        3.155688        3.839979
  H           -0.593329        3.298955        4.289966
  H           -1.319466        3.474265        2.913529
  O            3.290179       -1.466702        2.387075
  H            3.352945       -0.478445        2.382600
  H            3.144694       -1.710359        1.438350
