          37
  Built with Packmol                                             
  N            0.064952       -0.170366        2.240690
  C           -0.425087       -0.283877        0.868279
  C            0.367730        0.641149       -0.071166
  C           -0.134429        0.597594       -1.523145
  C            0.096668       -0.713488       -2.230733
  O            0.727246       -1.739965       -1.628533
  O           -0.270635       -0.838959       -3.387000
  H            1.072330       -0.447205        2.286531
  H           -0.048728        0.810713        2.583748
  H           -1.501047       -0.002735        0.840683
  H           -0.338388       -1.340879        0.545678
  H            1.449826        0.389794       -0.041707
  H            0.245710        1.683089        0.295720
  H           -1.217927        0.840241       -1.535888
  H            0.400055        1.383318       -2.098747
  H           -0.488277       -0.808425        2.855591
  O           -0.281833       -3.488074        3.625340
  H           -0.485970       -3.282814        2.678341
  H            0.076718       -4.410969        3.607447
  O           -2.451945       -3.137365        3.678433
  H           -2.358748       -4.023354        4.110809
  H           -2.193819       -2.489724        4.381672
  O            1.083112       -4.285330       -1.363661
  H            1.920475       -4.034266       -0.898472
  H            0.374920       -3.781770       -0.888787
  O           -2.140478       -4.128503       -0.774610
  H           -1.645827       -3.767749        0.003714
  H           -1.917734       -3.512560       -1.517317
  O            0.009039       -2.553993        5.789429
  H            0.822962       -2.472317        5.231335
  H            0.155076       -3.375739        6.322365
  O            2.519233       -3.756327        1.860290
  H            1.561109       -3.825520        2.100752
  H            2.529227       -3.206879        1.036506
  O            1.369109       -3.727394       -4.060356
  H            1.793065       -3.367071       -3.241186
  H            0.486321       -3.280483       -4.099970
