          37
  Built with Packmol                                             
  N            0.064952       -0.170366        2.240690
  C           -0.425087       -0.283877        0.868279
  C            0.367730        0.641149       -0.071166
  C           -0.134429        0.597594       -1.523145
  C            0.096668       -0.713488       -2.230733
  O            0.727246       -1.739965       -1.628533
  O           -0.270635       -0.838959       -3.387000
  H            1.072330       -0.447205        2.286531
  H           -0.048728        0.810713        2.583748
  H           -1.501047       -0.002735        0.840683
  H           -0.338388       -1.340879        0.545678
  H            1.449826        0.389794       -0.041707
  H            0.245710        1.683089        0.295720
  H           -1.217927        0.840241       -1.535888
  H            0.400055        1.383318       -2.098747
  H           -0.488277       -0.808425        2.855591
  O            4.237622       -0.793500        3.105112
  H            3.340093       -1.055951        3.430952
  H            4.418133        0.074058        3.547121
  O            2.201065       -2.826992        4.983342
  H            1.952594       -1.870009        4.928069
  H            2.622281       -3.024839        4.109245
  O            1.417017       -2.440329       -5.040472
  H            0.626289       -3.022218       -4.910988
  H            2.192225       -3.040553       -4.901203
  O            2.217027       -4.147072       -1.171691
  H            1.231565       -4.071034       -1.110923
  H            2.519066       -3.244681       -1.445690
  O           -1.018968       -4.049460        1.562679
  H           -1.225764       -4.565704        2.382032
  H           -1.879417       -3.629195        1.310455
  O            3.099464       -1.354569       -3.615740
  H            3.327642       -2.225958       -3.204368
  H            2.247211       -1.092432       -3.184970
  O            3.158544       -1.812507        1.369256
  H            3.789975       -2.574732        1.338959
  H            2.362812       -2.168060        1.839369
