          37
  Built with Packmol                                             
  N            0.064952       -0.170366        2.240690
  C           -0.425087       -0.283877        0.868279
  C            0.367730        0.641149       -0.071166
  C           -0.134429        0.597594       -1.523145
  C            0.096668       -0.713488       -2.230733
  O            0.727246       -1.739965       -1.628533
  O           -0.270635       -0.838959       -3.387000
  H            1.072330       -0.447205        2.286531
  H           -0.048728        0.810713        2.583748
  H           -1.501047       -0.002735        0.840683
  H           -0.338388       -1.340879        0.545678
  H            1.449826        0.389794       -0.041707
  H            0.245710        1.683089        0.295720
  H           -1.217927        0.840241       -1.535888
  H            0.400055        1.383318       -2.098747
  H           -0.488277       -0.808425        2.855591
  O           -2.968404       -2.731362        4.529119
  H           -2.668427       -3.646649        4.299174
  H           -3.015315       -2.259864        3.659578
  O            2.874289       -0.679977        4.745036
  H            2.944408       -1.293585        3.970969
  H            3.091685       -1.244117        5.529318
  O           -3.153298       -3.000982       -2.387216
  H           -3.025417       -2.019063       -2.377592
  H           -2.547947       -3.336966       -1.679206
  O            2.792862       -3.169996        1.421271
  H            3.721322       -2.922414        1.181947
  H            2.249335       -2.869668        0.649913
  O           -0.218757        3.547407        4.281729
  H            0.174289        2.728451        4.675984
  H           -1.030661        3.231202        3.811156
  O           -1.079357       -2.921612        5.641153
  H           -0.672496       -3.807548        5.467391
  H           -0.355043       -2.274090        5.449589
  O           -1.179922       -3.709688        2.568794
  H           -0.953298       -2.922961        3.125852
  H           -2.022424       -3.457118        2.113807
