          37
  Built with Packmol                                             
  N            0.064952       -0.170366        2.240690
  C           -0.425087       -0.283877        0.868279
  C            0.367730        0.641149       -0.071166
  C           -0.134429        0.597594       -1.523145
  C            0.096668       -0.713488       -2.230733
  O            0.727246       -1.739965       -1.628533
  O           -0.270635       -0.838959       -3.387000
  H            1.072330       -0.447205        2.286531
  H           -0.048728        0.810713        2.583748
  H           -1.501047       -0.002735        0.840683
  H           -0.338388       -1.340879        0.545678
  H            1.449826        0.389794       -0.041707
  H            0.245710        1.683089        0.295720
  H           -1.217927        0.840241       -1.535888
  H            0.400055        1.383318       -2.098747
  H           -0.488277       -0.808425        2.855591
  O           -1.112443       -3.841624       -4.684518
  H           -1.577862       -4.487055       -4.095099
  H           -1.709272       -3.051769       -4.707696
  O            2.869735       -1.088608       -2.853850
  H            3.012409       -0.991972       -3.828999
  H            3.227703       -1.986438       -2.638506
  O            1.799831       -3.571868       -4.077724
  H            2.562400       -3.056278       -4.442781
  H            2.055740       -3.763236       -3.140440
  O            0.580970       -3.668971        3.349050
  H            1.420035       -3.292168        2.982171
  H            0.534276       -3.316956        4.273451
  O           -1.364917       -3.924990        2.031959
  H           -0.980251       -3.016469        1.946919
  H           -1.979503       -4.007464        1.259887
  O           -0.319609       -3.354285       -2.692083
  H           -1.216353       -2.955617       -2.559705
  H           -0.312138       -4.149619       -2.102166
  O            1.030264       -2.624384       -5.954339
  H            0.639310       -3.533935       -5.976291
  H            0.551598       -2.166287       -5.218378
