          37
  Built with Packmol                                             
  N            0.064952       -0.170366        2.240690
  C           -0.425087       -0.283877        0.868279
  C            0.367730        0.641149       -0.071166
  C           -0.134429        0.597594       -1.523145
  C            0.096668       -0.713488       -2.230733
  O            0.727246       -1.739965       -1.628533
  O           -0.270635       -0.838959       -3.387000
  H            1.072330       -0.447205        2.286531
  H           -0.048728        0.810713        2.583748
  H           -1.501047       -0.002735        0.840683
  H           -0.338388       -1.340879        0.545678
  H            1.449826        0.389794       -0.041707
  H            0.245710        1.683089        0.295720
  H           -1.217927        0.840241       -1.535888
  H            0.400055        1.383318       -2.098747
  H           -0.488277       -0.808425        2.855591
  O           -2.094388       -3.453068        3.682800
  H           -1.217772       -3.894242        3.550436
  H           -2.314782       -3.619430        4.633780
  O            1.135764       -3.679149        2.834338
  H            2.030881       -3.862878        2.452738
  H            1.007223       -4.385260        3.516612
  O           -1.936943       -2.968789       -6.038999
  H           -2.446104       -3.288018       -5.251942
  H           -1.043847       -2.737078       -5.679411
  O           -3.420233       -3.511293       -1.975486
  H           -2.552313       -3.972038       -1.852846
  H           -3.176771       -2.571787       -2.172127
  O            1.158629       -3.909707       -3.776282
  H            0.657356       -3.055710       -3.781391
  H            0.674418       -4.485463       -4.420221
  O           -2.036039       -3.811825        1.515536
  H           -2.843184       -3.240789        1.570730
  H           -2.221248       -4.431361        0.765546
  O            2.101125       -4.256718       -0.088298
  H            1.211833       -4.479793        0.285878
  H            2.282189       -3.337795        0.233277
