          37
  Built with Packmol                                             
  N            0.064952       -0.170366        2.240690
  C           -0.425087       -0.283877        0.868279
  C            0.367730        0.641149       -0.071166
  C           -0.134429        0.597594       -1.523145
  C            0.096668       -0.713488       -2.230733
  O            0.727246       -1.739965       -1.628533
  O           -0.270635       -0.838959       -3.387000
  H            1.072330       -0.447205        2.286531
  H           -0.048728        0.810713        2.583748
  H           -1.501047       -0.002735        0.840683
  H           -0.338388       -1.340879        0.545678
  H            1.449826        0.389794       -0.041707
  H            0.245710        1.683089        0.295720
  H           -1.217927        0.840241       -1.535888
  H            0.400055        1.383318       -2.098747
  H           -0.488277       -0.808425        2.855591
  O            0.301382       -0.830715        6.776233
  H            0.315209       -1.608982        6.164088
  H            1.095073       -0.297819        6.517994
  O            2.452370       -1.790118        5.611516
  H            3.063460       -1.180091        6.096333
  H            2.307282       -2.544314        6.236617
  O           -1.468784       -3.977736        0.284099
  H           -0.594846       -3.513688        0.322885
  H           -2.118143       -3.265291        0.057454
  O           -0.755982        1.129241       -6.787064
  H            0.131522        1.503886       -7.016386
  H           -0.766727        1.104844       -5.797163
  O           -1.968187       -1.894857       -6.326740
  H           -1.569780       -1.994581       -5.425664
  H           -1.803109       -0.948645       -6.567664
  O            1.541431        2.097268       -5.060073
  H            1.952863        1.393633       -4.497726
  H            0.885367        2.539023       -4.464216
  O            1.824823        3.073675        2.344920
  H            2.352488        2.324030        2.719369
  H            2.117883        3.136244        1.401091
