          37
  Built with Packmol                                             
  N           -0.443767       -0.471812        1.745205
  C            0.693510        0.104360        1.026899
  C            0.252325        0.999585       -0.146245
  C           -0.573823        0.306802       -1.244857
  C            0.172762       -0.788129       -1.957711
  O            0.408222       -0.687945       -3.151027
  O            0.546344       -1.903284       -1.303739
  H           -0.087472       -1.004114        2.571270
  H           -1.081184        0.285863        2.081386
  H            1.280979        0.732860        1.731174
  H            1.368045       -0.703734        0.677139
  H            1.158667        1.443130       -0.611175
  H           -0.355788        1.834342        0.265274
  H           -1.517364       -0.100802       -0.829235
  H           -0.852734        1.086771       -1.985872
  H           -0.968720       -1.133893        1.131516
  O            2.400015        2.842796       -4.244576
  H            1.476802        2.538111       -4.432874
  H            2.406701        3.795586       -4.514318
  O            2.477005       -3.220877       -0.303498
  H            2.580737       -3.286815        0.679102
  H            3.306270       -3.621030       -0.667928
  O            2.048010       -2.516269       -3.845514
  H            2.579780       -2.238736       -4.633427
  H            2.718832       -2.852884       -3.199525
  O            3.380649        1.590276       -2.491624
  H            2.392332        1.600698       -2.430535
  H            3.676292        1.150196       -1.655240
  O            4.166768       -0.747108       -0.466039
  H            3.300695       -1.181633       -0.261792
  H            4.480658       -1.195292       -1.291398
  O            3.117406        2.933439        0.056589
  H            2.438685        3.230704       -0.600361
  H            3.973061        2.960658       -0.441132
  O            2.898345       -0.253665       -3.586852
  H            3.629880       -0.851738       -3.290582
  H            3.078313       -0.099003       -4.548259
