          37
  Built with Packmol                                             
  N           -0.443767       -0.471812        1.745205
  C            0.693510        0.104360        1.026899
  C            0.252325        0.999585       -0.146245
  C           -0.573823        0.306802       -1.244857
  C            0.172762       -0.788129       -1.957711
  O            0.408222       -0.687945       -3.151027
  O            0.546344       -1.903284       -1.303739
  H           -0.087472       -1.004114        2.571270
  H           -1.081184        0.285863        2.081386
  H            1.280979        0.732860        1.731174
  H            1.368045       -0.703734        0.677139
  H            1.158667        1.443130       -0.611175
  H           -0.355788        1.834342        0.265274
  H           -1.517364       -0.100802       -0.829235
  H           -0.852734        1.086771       -1.985872
  H           -0.968720       -1.133893        1.131516
  O           -1.493058       -3.363724        3.688224
  H           -1.341022       -3.074010        4.622869
  H           -2.008088       -2.623196        3.279597
  O            3.934598       -1.597300        1.353424
  H            4.001466       -0.952032        2.101601
  H            4.193620       -2.466299        1.751370
  O            2.565765       -2.696529       -0.292934
  H            3.537438       -2.726694       -0.481487
  H            2.467311       -3.159675        0.576787
  O            0.528930       -3.830326        1.365827
  H            0.440864       -4.644291        1.922887
  H            0.390094       -3.080842        1.997976
  O            1.996517       -3.398118        3.465895
  H            2.641554       -4.149270        3.483440
  H            2.533035       -2.617036        3.178366
  O            1.007660       -2.078017        4.918780
  H            0.772597       -2.989044        5.227626
  H            0.193724       -1.540453        5.089506
  O            1.527187       -3.885844       -2.308110
  H            2.172932       -3.142064       -2.410160
  H            1.252274       -4.104515       -3.233971
