          37
  Built with Packmol                                             
  N           -0.443767       -0.471812        1.745205
  C            0.693510        0.104360        1.026899
  C            0.252325        0.999585       -0.146245
  C           -0.573823        0.306802       -1.244857
  C            0.172762       -0.788129       -1.957711
  O            0.408222       -0.687945       -3.151027
  O            0.546344       -1.903284       -1.303739
  H           -0.087472       -1.004114        2.571270
  H           -1.081184        0.285863        2.081386
  H            1.280979        0.732860        1.731174
  H            1.368045       -0.703734        0.677139
  H            1.158667        1.443130       -0.611175
  H           -0.355788        1.834342        0.265274
  H           -1.517364       -0.100802       -0.829235
  H           -0.852734        1.086771       -1.985872
  H           -0.968720       -1.133893        1.131516
  O            4.308780       -0.164836       -1.717765
  H            3.863135       -0.038704       -0.842492
  H            3.828885        0.446970       -2.330960
  O            1.489588       -3.656120       -3.595130
  H            2.171065       -3.408729       -4.269665
  H            1.993518       -3.719519       -2.745042
  O            3.788565       -2.333858       -0.347106
  H            4.200360       -1.897238        0.440547
  H            2.839923       -2.051111       -0.319797
  O            2.987912        2.342333       -3.460688
  H            2.571439        1.953702       -4.270704
  H            2.222494        2.610742       -2.892617
  O            3.100793       -1.512681       -3.253309
  H            2.442536       -1.394931       -2.522937
  H            3.848733       -2.009329       -2.835529
  O            3.244973       -0.131398        3.217455
  H            4.156679        0.255126        3.219260
  H            3.107554       -0.438534        2.286113
  O            4.114187        2.729895       -0.813802
  H            4.653569        2.225389       -0.154142
  H            3.307982        2.172131       -0.953610
