          37
  Built with Packmol                                             
  N            0.064952       -0.170366        2.240690
  C           -0.425087       -0.283877        0.868279
  C            0.367730        0.641149       -0.071166
  C           -0.134429        0.597594       -1.523145
  C            0.096668       -0.713488       -2.230733
  O            0.727246       -1.739965       -1.628533
  O           -0.270635       -0.838959       -3.387000
  H            1.072330       -0.447205        2.286531
  H           -0.048728        0.810713        2.583748
  H           -1.501047       -0.002735        0.840683
  H           -0.338388       -1.340879        0.545678
  H            1.449826        0.389794       -0.041707
  H            0.245710        1.683089        0.295720
  H           -1.217927        0.840241       -1.535888
  H            0.400055        1.383318       -2.098747
  H           -0.488277       -0.808425        2.855591
  O           -1.869255       -4.325614        0.981929
  H           -1.928397       -4.464059        0.003182
  H           -1.614882       -3.373931        1.082958
  O            0.117002       -4.180006        3.019116
  H            0.904048       -3.580379        2.978915
  H           -0.322898       -3.954804        3.877245
  O            2.100654       -3.853419        4.804067
  H            1.290128       -3.693392        5.350006
  H            2.459951       -2.948722        4.622291
  O            0.966387       -3.389776       -5.529089
  H            0.136869       -3.930606       -5.532715
  H            0.838960       -2.745027       -4.788364
  O            1.053702       -3.740963       -2.477825
  H            0.302487       -4.178382       -2.952115
  H            1.857242       -3.995962       -2.997356
  O            2.930869       -3.564814        0.716803
  H            2.586559       -3.860698        1.596867
  H            2.361500       -2.791580        0.474850
  O            0.471874       -3.902390        0.509497
  H            0.147163       -3.524501       -0.346292
  H            0.194816       -4.852706        0.482074
