 xtb: 6.7.1 (edcfbbe)
          06092518033D

 37 29  0     0  0            999 V2000
    0.0177   -0.7941    2.2263 N   0  0  0  0  0  0  0  0  0  0  0  0
   -0.5654   -0.4851    0.9108 C   0  0  0  0  0  0  0  0  0  0  0  0
    0.2918    0.5186    0.1454 C   0  0  0  0  0  0  0  0  0  0  0  0
   -0.1630    0.6430   -1.3064 C   0  0  0  0  0  0  0  0  0  0  0  0
    0.2991   -0.5420   -2.1767 C   0  0  0  0  0  0  0  0  0  0  0  0
    1.3263   -1.1637   -1.8371 O   0  0  0  0  0  0  0  0  0  0  0  0
   -0.3812   -0.8068   -3.1976 O   0  0  0  0  0  0  0  0  0  0  0  0
    0.9763   -1.2241    2.1049 H   0  0  0  0  0  0  0  0  0  0  0  0
    0.0885    0.0425    2.8035 H   0  0  0  0  0  0  0  0  0  0  0  0
   -1.5744   -0.0898    1.0374 H   0  0  0  0  0  0  0  0  0  0  0  0
   -0.6326   -1.4094    0.3372 H   0  0  0  0  0  0  0  0  0  0  0  0
    1.3297    0.1780    0.1318 H   0  0  0  0  0  0  0  0  0  0  0  0
    0.2473    1.4991    0.6214 H   0  0  0  0  0  0  0  0  0  0  0  0
   -1.2477    0.7206   -1.3962 H   0  0  0  0  0  0  0  0  0  0  0  0
    0.2738    1.5316   -1.7702 H   0  0  0  0  0  0  0  0  0  0  0  0
   -0.5538   -1.5398    2.7177 H   0  0  0  0  0  0  0  0  0  0  0  0
   -1.0918   -3.8484    0.6491 O   0  0  0  0  0  0  0  0  0  0  0  0
   -1.5193   -4.4973    0.0874 H   0  0  0  0  0  0  0  0  0  0  0  0
   -0.1818   -3.7344    0.3003 H   0  0  0  0  0  0  0  0  0  0  0  0
   -1.1298   -2.9838    3.2636 O   0  0  0  0  0  0  0  0  0  0  0  0
   -0.3180   -3.4055    3.5962 H   0  0  0  0  0  0  0  0  0  0  0  0
   -1.2827   -3.3857    2.3895 H   0  0  0  0  0  0  0  0  0  0  0  0
    1.3919   -4.0463    4.0091 O   0  0  0  0  0  0  0  0  0  0  0  0
    1.5682   -4.9799    3.8578 H   0  0  0  0  0  0  0  0  0  0  0  0
    1.7137   -3.8318    4.8904 H   0  0  0  0  0  0  0  0  0  0  0  0
    0.3221   -3.1604   -4.3245 O   0  0  0  0  0  0  0  0  0  0  0  0
   -0.4387   -3.3513   -4.8822 H   0  0  0  0  0  0  0  0  0  0  0  0
    0.1318   -2.2849   -3.9111 H   0  0  0  0  0  0  0  0  0  0  0  0
    1.6367   -4.9575   -2.6553 O   0  0  0  0  0  0  0  0  0  0  0  0
    1.1500   -4.3381   -3.2313 H   0  0  0  0  0  0  0  0  0  0  0  0
    2.4894   -5.0909   -3.0801 H   0  0  0  0  0  0  0  0  0  0  0  0
    2.2701   -2.2647    2.0109 O   0  0  0  0  0  0  0  0  0  0  0  0
    2.0350   -2.9165    2.6970 H   0  0  0  0  0  0  0  0  0  0  0  0
    2.1317   -2.7196    1.1635 H   0  0  0  0  0  0  0  0  0  0  0  0
    1.4036   -3.4268   -0.3737 O   0  0  0  0  0  0  0  0  0  0  0  0
    1.4024   -2.5936   -0.8850 H   0  0  0  0  0  0  0  0  0  0  0  0
    1.5677   -4.1129   -1.0475 H   0  0  0  0  0  0  0  0  0  0  0  0
  1  2  1  0  0  0  0
  2  3  1  0  0  0  0
  3  4  1  0  0  0  0
  4  5  1  0  0  0  0
  5  6  4  0  0  0  0
  5  7  4  0  0  0  0
  1  8  1  0  0  0  0
  1  9  1  0  0  0  0
  2 10  1  0  0  0  0
  2 11  1  0  0  0  0
  3 12  1  0  0  0  0
  3 13  1  0  0  0  0
  4 14  1  0  0  0  0
  4 15  1  0  0  0  0
  1 16  1  0  0  0  0
 17 18  1  0  0  0  0
 17 19  1  0  0  0  0
 20 21  1  0  0  0  0
 20 22  1  0  0  0  0
 23 24  1  0  0  0  0
 23 25  1  0  0  0  0
 26 27  1  0  0  0  0
 26 28  1  0  0  0  0
 29 30  1  0  0  0  0
 29 31  1  0  0  0  0
 32 33  1  0  0  0  0
 32 34  1  0  0  0  0
 35 36  1  0  0  0  0
 35 37  1  0  0  0  0
M  END
