 xtb: 6.7.1 (edcfbbe)
          06092517533D

 34 26  0     0  0            999 V2000
    0.3156   -0.8060   -0.0039 C   0  0  0  0  0  0  0  0  0  0  0  0
    1.4782   -1.1823    0.9629 C   0  0  0  0  0  0  0  0  0  0  0  0
    1.2934   -2.1901    1.6793 O   0  0  0  0  0  0  0  0  0  0  0  0
    2.5047   -0.4729    0.9408 O   0  0  0  0  0  0  0  0  0  0  0  0
    0.4159    0.6281   -0.4907 C   0  0  0  0  0  0  0  0  0  0  0  0
   -0.5609    0.9118   -1.5551 N   0  0  0  0  0  0  0  0  0  0  0  0
    0.3932   -1.5067   -0.8373 H   0  0  0  0  0  0  0  0  0  0  0  0
   -0.6141   -1.0045    0.5282 H   0  0  0  0  0  0  0  0  0  0  0  0
    0.2503    1.3013    0.3508 H   0  0  0  0  0  0  0  0  0  0  0  0
    1.4329    0.7891   -0.8515 H   0  0  0  0  0  0  0  0  0  0  0  0
   -1.5358    0.7865   -1.2142 H   0  0  0  0  0  0  0  0  0  0  0  0
   -0.4410    0.2671   -2.3581 H   0  0  0  0  0  0  0  0  0  0  0  0
   -0.4796    1.9006   -1.8794 H   0  0  0  0  0  0  0  0  0  0  0  0
   -2.9645    0.8319   -3.8589 O   0  0  0  0  0  0  0  0  0  0  0  0
   -2.5159    1.6189   -4.2173 H   0  0  0  0  0  0  0  0  0  0  0  0
   -2.2881    0.1325   -3.9019 H   0  0  0  0  0  0  0  0  0  0  0  0
    0.0118    0.7331   -5.9081 O   0  0  0  0  0  0  0  0  0  0  0  0
   -0.4439    1.5427   -5.6078 H   0  0  0  0  0  0  0  0  0  0  0  0
    0.8934    0.9945   -6.1837 H   0  0  0  0  0  0  0  0  0  0  0  0
   -0.6952    3.5888   -2.1982 O   0  0  0  0  0  0  0  0  0  0  0  0
   -1.5484    3.6664   -1.7121 H   0  0  0  0  0  0  0  0  0  0  0  0
   -0.0961    4.2287   -1.8079 H   0  0  0  0  0  0  0  0  0  0  0  0
   -0.6756   -0.7797   -3.7871 O   0  0  0  0  0  0  0  0  0  0  0  0
   -0.3389   -0.3140   -4.5837 H   0  0  0  0  0  0  0  0  0  0  0  0
   -0.5558   -1.7181   -3.9398 H   0  0  0  0  0  0  0  0  0  0  0  0
   -1.3106    2.9119   -4.7808 O   0  0  0  0  0  0  0  0  0  0  0  0
   -1.5830    3.7073   -5.2446 H   0  0  0  0  0  0  0  0  0  0  0  0
   -0.9960    3.1963   -3.8992 H   0  0  0  0  0  0  0  0  0  0  0  0
   -3.0137    3.5471   -0.8310 O   0  0  0  0  0  0  0  0  0  0  0  0
   -3.8346    3.9656   -1.1021 H   0  0  0  0  0  0  0  0  0  0  0  0
   -3.1855    2.5849   -0.8285 H   0  0  0  0  0  0  0  0  0  0  0  0
   -3.3093    0.8478   -1.2282 O   0  0  0  0  0  0  0  0  0  0  0  0
   -3.9152    0.1542   -0.9612 H   0  0  0  0  0  0  0  0  0  0  0  0
   -3.3087    0.8623   -2.2212 H   0  0  0  0  0  0  0  0  0  0  0  0
  1  2  1  0  0  0  0
  2  3  4  0  0  0  0
  2  4  4  0  0  0  0
  1  5  1  0  0  0  0
  5  6  1  0  0  0  0
  1  7  1  0  0  0  0
  1  8  1  0  0  0  0
  5  9  1  0  0  0  0
  5 10  1  0  0  0  0
  6 11  1  0  0  0  0
  6 12  1  0  0  0  0
  6 13  1  0  0  0  0
 14 15  1  0  0  0  0
 14 16  1  0  0  0  0
 17 18  1  0  0  0  0
 17 19  1  0  0  0  0
 20 21  1  0  0  0  0
 20 22  1  0  0  0  0
 23 24  1  0  0  0  0
 23 25  1  0  0  0  0
 26 27  1  0  0  0  0
 26 28  1  0  0  0  0
 29 30  1  0  0  0  0
 29 31  1  0  0  0  0
 32 33  1  0  0  0  0
 32 34  1  0  0  0  0
M  END
