          37
  Built with Packmol                                             
  N           -0.443767       -0.471812        1.745205
  C            0.693510        0.104360        1.026899
  C            0.252325        0.999585       -0.146245
  C           -0.573823        0.306802       -1.244857
  C            0.172762       -0.788129       -1.957711
  O            0.408222       -0.687945       -3.151027
  O            0.546344       -1.903284       -1.303739
  H           -0.087472       -1.004114        2.571270
  H           -1.081184        0.285863        2.081386
  H            1.280979        0.732860        1.731174
  H            1.368045       -0.703734        0.677139
  H            1.158667        1.443130       -0.611175
  H           -0.355788        1.834342        0.265274
  H           -1.517364       -0.100802       -0.829235
  H           -0.852734        1.086771       -1.985872
  H           -0.968720       -1.133893        1.131516
  O            2.028600        3.308550        3.980366
  H            2.109746        2.996391        3.044106
  H            2.113794        2.485607        4.524536
  O           -3.238825        2.548382       -3.329974
  H           -2.510286        1.912473       -3.116760
  H           -2.904031        3.056306       -4.111344
  O           -2.765264        2.555048        2.642803
  H           -1.830891        2.792096        2.869443
  H           -3.316335        3.186530        3.170216
  O            1.423033        3.360331       -3.678028
  H            2.371958        3.640131       -3.634850
  H            1.386845        2.523486       -3.149830
  O           -0.026657        2.593359        5.031475
  H           -0.652543        2.331918        5.752950
  H           -0.221414        3.550562        4.868855
  O           -0.468785        3.588270       -2.441914
  H           -0.753518        3.196426       -3.305625
  H           -1.292315        3.992963       -2.069577
  O            0.247351        2.217890       -5.900991
  H            0.905985        1.897265       -5.234649
  H            0.194970        3.194832       -5.747842
