          34
  Built with Packmol                                             
  C            0.000717       -0.522558        0.678044
  C            0.000155        0.093927        2.050368
  O           -0.000195       -0.630131        3.032262
  O           -0.000797        1.431559        2.216433
  C            0.000989        0.525311       -0.443260
  N           -0.000301       -0.116591       -1.756652
  H            0.902593       -1.162928        0.578888
  H           -0.902640       -1.160238        0.579017
  H           -0.902002        1.167413       -0.351037
  H            0.903666        1.168949       -0.351720
  H           -0.857069       -0.705532       -1.867523
  H            0.853228       -0.710069       -1.867795
  H            0.001656        0.620887       -2.497026
  O            0.792867        3.825154        0.283095
  H            1.619220        3.640568       -0.230402
  H            0.213092        4.319733       -0.349255
  O           -0.927930        0.292388        6.759353
  H           -0.542391        0.675495        5.931585
  H           -0.924134        1.042957        7.405298
  O           -3.294703       -0.824751       -1.438260
  H           -3.472302       -0.359637       -0.582259
  H           -2.742898       -1.607243       -1.185612
  O            1.117000       -0.548046       -5.682752
  H            1.619031       -1.357364       -5.411495
  H            1.810007        0.152443       -5.781090
  O           -0.479942        2.850806        3.825946
  H           -1.398770        3.133240        4.063848
  H            0.094363        3.602379        4.119076
  O           -2.021835        3.133043        1.929190
  H           -2.649432        2.529221        1.457881
  H           -1.212097        3.143166        1.359248
  O           -1.803053       -0.497124        4.459095
  H           -2.434231        0.023042        5.017353
  H           -1.934581       -1.436008        4.745120
