          37
  Built with Packmol                                             
  N           -0.443767       -0.471812        1.745205
  C            0.693510        0.104360        1.026899
  C            0.252325        0.999585       -0.146245
  C           -0.573823        0.306802       -1.244857
  C            0.172762       -0.788129       -1.957711
  O            0.408222       -0.687945       -3.151027
  O            0.546344       -1.903284       -1.303739
  H           -0.087472       -1.004114        2.571270
  H           -1.081184        0.285863        2.081386
  H            1.280979        0.732860        1.731174
  H            1.368045       -0.703734        0.677139
  H            1.158667        1.443130       -0.611175
  H           -0.355788        1.834342        0.265274
  H           -1.517364       -0.100802       -0.829235
  H           -0.852734        1.086771       -1.985872
  H           -0.968720       -1.133893        1.131516
  O            2.026966       -3.656608        3.536272
  H            1.802254       -3.497198        2.585113
  H            1.717832       -2.840560        4.004369
  O           -3.408015        3.894743       -1.989296
  H           -2.462078        3.678187       -1.792020
  H           -3.923595        3.404846       -1.300244
  O           -1.680743       -3.300636        1.590864
  H           -2.645555       -3.503066        1.497215
  H           -1.406200       -3.776608        2.414690
  O           -2.194082        3.015207        0.769287
  H           -2.655816        3.872349        0.588398
  H           -2.459173        2.427203        0.017894
  O           -2.356114        3.324916        4.975379
  H           -2.616017        2.440790        5.337847
  H           -1.465078        3.174773        4.570256
  O           -3.027660        2.978497        2.878927
  H           -2.563299        3.848226        2.786451
  H           -3.805418        3.046502        2.269763
  O           -2.751766        2.454718       -4.169822
  H           -3.323340        1.808761       -3.683352
  H           -3.239702        3.314127       -4.106986
