          37
  Built with Packmol                                             
  N           -0.443767       -0.471812        1.745205
  C            0.693510        0.104360        1.026899
  C            0.252325        0.999585       -0.146245
  C           -0.573823        0.306802       -1.244857
  C            0.172762       -0.788129       -1.957711
  O            0.408222       -0.687945       -3.151027
  O            0.546344       -1.903284       -1.303739
  H           -0.087472       -1.004114        2.571270
  H           -1.081184        0.285863        2.081386
  H            1.280979        0.732860        1.731174
  H            1.368045       -0.703734        0.677139
  H            1.158667        1.443130       -0.611175
  H           -0.355788        1.834342        0.265274
  H           -1.517364       -0.100802       -0.829235
  H           -0.852734        1.086771       -1.985872
  H           -0.968720       -1.133893        1.131516
  O           -3.591992       -1.305812       -1.365617
  H           -2.759191       -1.839920       -1.323409
  H           -4.317663       -1.979198       -1.389395
  O           -3.357962       -1.091242       -3.531500
  H           -3.817938       -0.604070       -4.260675
  H           -2.661850       -0.462694       -3.213746
  O           -2.310045       -2.103931       -5.176784
  H           -2.884366       -2.902193       -5.060409
  H           -1.662105       -2.364671       -5.878782
  O           -2.251946        0.304157       -6.203028
  H           -3.032513        0.865104       -5.964988
  H           -1.824667        0.092453       -5.335141
  O           -1.659933       -3.648671       -2.905024
  H           -1.176055       -3.191635       -3.638231
  H           -2.348672       -4.192700       -3.363592
  O           -2.657604        2.742837       -4.680234
  H           -1.788088        2.307655       -4.867773
  H           -2.962855        2.332128       -3.832441
  O           -3.166667        1.377705       -0.933770
  H           -3.042583        1.265691       -1.909817
  H           -4.014180        1.882615       -0.847746
