          37
  Built with Packmol                                             
  N           -0.443767       -0.471812        1.745205
  C            0.693510        0.104360        1.026899
  C            0.252325        0.999585       -0.146245
  C           -0.573823        0.306802       -1.244857
  C            0.172762       -0.788129       -1.957711
  O            0.408222       -0.687945       -3.151027
  O            0.546344       -1.903284       -1.303739
  H           -0.087472       -1.004114        2.571270
  H           -1.081184        0.285863        2.081386
  H            1.280979        0.732860        1.731174
  H            1.368045       -0.703734        0.677139
  H            1.158667        1.443130       -0.611175
  H           -0.355788        1.834342        0.265274
  H           -1.517364       -0.100802       -0.829235
  H           -0.852734        1.086771       -1.985872
  H           -0.968720       -1.133893        1.131516
  O            1.902938       -0.636291        5.959443
  H            1.952249       -1.389733        5.318737
  H            1.900472       -1.068157        6.850565
  O            0.182178        0.164827       -7.082953
  H            0.358485        0.144390       -6.108731
  H            0.144085        1.128415       -7.308029
  O           -1.034738        2.060487       -4.733805
  H           -0.242029        1.514414       -4.501368
  H           -1.141567        1.939449       -5.710816
  O           -1.992190       -0.466707        4.748656
  H           -1.143930       -0.913732        4.501203
  H           -1.711143        0.392854        5.152118
  O            2.706109        1.213832        3.936370
  H            2.755914        0.233515        4.067169
  H            2.056312        1.522248        4.616999
  O           -0.035130       -1.840742        6.152965
  H           -0.910685       -1.640792        6.570139
  H           -0.213791       -2.612765        5.559102
  O           -2.420968       -0.618335       -4.431759
  H           -2.406751        0.185320       -3.853359
  H           -2.386264       -0.260563       -5.354477
