          37
  Built with Packmol                                             
  N           -0.443767       -0.471812        1.745205
  C            0.693510        0.104360        1.026899
  C            0.252325        0.999585       -0.146245
  C           -0.573823        0.306802       -1.244857
  C            0.172762       -0.788129       -1.957711
  O            0.408222       -0.687945       -3.151027
  O            0.546344       -1.903284       -1.303739
  H           -0.087472       -1.004114        2.571270
  H           -1.081184        0.285863        2.081386
  H            1.280979        0.732860        1.731174
  H            1.368045       -0.703734        0.677139
  H            1.158667        1.443130       -0.611175
  H           -0.355788        1.834342        0.265274
  H           -1.517364       -0.100802       -0.829235
  H           -0.852734        1.086771       -1.985872
  H           -0.968720       -1.133893        1.131516
  O           -3.248313       -3.241203       -0.695643
  H           -2.774971       -4.090372       -0.883981
  H           -2.859212       -2.593114       -1.335327
  O            3.315569       -0.935643       -1.775219
  H            4.258643       -1.115276       -2.018024
  H            3.240445        0.051707       -1.785623
  O            3.164675       -2.915038       -2.728689
  H            2.228600       -2.740302       -2.456949
  H            3.217052       -3.899764       -2.819166
  O            3.425366       -0.117430       -3.970619
  H            2.564075       -0.582376       -4.121004
  H            3.978709       -0.360322       -4.755111
  O            4.052502       -1.632375        0.561394
  H            4.574702       -2.163978       -0.090769
  H            3.134457       -1.998763        0.501674
  O            3.690580        0.933865        1.775440
  H            3.958027        0.017422        2.038527
  H            3.852212        0.968832        0.799087
  O            2.782913       -4.253066        0.265348
  H            2.819687       -3.904927       -0.660966
  H            3.697160       -4.113519        0.619314
