          37
  Built with Packmol                                             
  N           -0.443767       -0.471812        1.745205
  C            0.693510        0.104360        1.026899
  C            0.252325        0.999585       -0.146245
  C           -0.573823        0.306802       -1.244857
  C            0.172762       -0.788129       -1.957711
  O            0.408222       -0.687945       -3.151027
  O            0.546344       -1.903284       -1.303739
  H           -0.087472       -1.004114        2.571270
  H           -1.081184        0.285863        2.081386
  H            1.280979        0.732860        1.731174
  H            1.368045       -0.703734        0.677139
  H            1.158667        1.443130       -0.611175
  H           -0.355788        1.834342        0.265274
  H           -1.517364       -0.100802       -0.829235
  H           -0.852734        1.086771       -1.985872
  H           -0.968720       -1.133893        1.131516
  O            2.824849       -2.189317        4.577655
  H            2.359923       -2.993329        4.234114
  H            2.100272       -1.534184        4.740145
  O            3.090996       -0.022588       -1.707523
  H            3.152249        0.963824       -1.769577
  H            4.013017       -0.339783       -1.880373
  O            2.021938       -2.383884        1.931113
  H            2.774171       -2.284461        1.294819
  H            2.109406       -1.609180        2.541684
  O            2.754461        2.308909       -3.695580
  H            2.053204        2.848035       -3.250392
  H            2.258397        1.729266       -4.326886
  O            3.403130        2.368038        2.807305
  H            2.448002        2.145576        2.944603
  H            3.447394        2.709291        1.878758
  O            3.572161        0.251225        0.422341
  H            4.554766        0.186334        0.318002
  H            3.441904        0.574583        1.349211
  O            2.465064       -4.497973        2.354925
  H            3.348446       -4.062602        2.458359
  H            2.299772       -4.494932        1.378563
