          37
  Built with Packmol                                             
  N           -0.443767       -0.471812        1.745205
  C            0.693510        0.104360        1.026899
  C            0.252325        0.999585       -0.146245
  C           -0.573823        0.306802       -1.244857
  C            0.172762       -0.788129       -1.957711
  O            0.408222       -0.687945       -3.151027
  O            0.546344       -1.903284       -1.303739
  H           -0.087472       -1.004114        2.571270
  H           -1.081184        0.285863        2.081386
  H            1.280979        0.732860        1.731174
  H            1.368045       -0.703734        0.677139
  H            1.158667        1.443130       -0.611175
  H           -0.355788        1.834342        0.265274
  H           -1.517364       -0.100802       -0.829235
  H           -0.852734        1.086771       -1.985872
  H           -0.968720       -1.133893        1.131516
  O            2.107879        3.397312        3.475117
  H            1.830161        3.242333        2.537319
  H            1.583719        2.741806        4.000647
  O           -3.309987        3.372640        1.852155
  H           -3.240675        2.479668        2.274539
  H           -2.964371        3.240144        0.933673
  O           -0.105640        2.711393        5.431890
  H            0.076018        3.609396        5.807659
  H           -0.823576        2.861445        4.766560
  O           -2.217473       -3.295293        2.500381
  H           -2.344634       -3.765730        3.362431
  H           -2.653578       -2.415877        2.630968
  O           -0.433326       -3.163652        4.326493
  H           -1.072516       -2.457395        4.597136
  H            0.182668       -3.249318        5.097095
  O           -1.142633        3.458940        2.451272
  H           -1.057905        2.481717        2.587168
  H           -0.643980        3.637219        1.614507
  O           -2.965123        2.647380        5.220225
  H           -2.985427        1.692054        4.960317
  H           -3.177451        3.136141        4.385574
