          37
  Built with Packmol                                             
  N           -0.443767       -0.471812        1.745205
  C            0.693510        0.104360        1.026899
  C            0.252325        0.999585       -0.146245
  C           -0.573823        0.306802       -1.244857
  C            0.172762       -0.788129       -1.957711
  O            0.408222       -0.687945       -3.151027
  O            0.546344       -1.903284       -1.303739
  H           -0.087472       -1.004114        2.571270
  H           -1.081184        0.285863        2.081386
  H            1.280979        0.732860        1.731174
  H            1.368045       -0.703734        0.677139
  H            1.158667        1.443130       -0.611175
  H           -0.355788        1.834342        0.265274
  H           -1.517364       -0.100802       -0.829235
  H           -0.852734        1.086771       -1.985872
  H           -0.968720       -1.133893        1.131516
  O           -1.761475       -3.497803       -1.893329
  H           -1.855233       -2.556268       -2.185445
  H           -0.797019       -3.600777       -1.693741
  O           -3.420301       -2.272003       -0.578658
  H           -4.324000       -2.439898       -0.210216
  H           -3.349100       -1.285222       -0.621168
  O           -2.446008       -3.972718       -4.208532
  H           -1.468990       -4.128620       -4.166806
  H           -2.552474       -3.240069       -4.866182
  O           -1.044604       -1.996945       -5.865966
  H           -0.767588       -2.538478       -6.647384
  H           -1.290924       -1.117369       -6.248439
  O           -3.522595       -1.797715       -3.523360
  H           -4.388137       -1.455757       -3.184964
  H           -3.073842       -1.002035       -3.905627
  O            0.130148       -4.060812        1.992283
  H           -0.241504       -3.165310        2.193683
  H           -0.650778       -4.592530        1.695560
  O           -2.740360       -3.524086        1.884519
  H           -2.542467       -2.591821        1.615575
  H           -3.432236       -3.825689        1.243460
