          37
  Built with Packmol                                             
  N           -0.443767       -0.471812        1.745205
  C            0.693510        0.104360        1.026899
  C            0.252325        0.999585       -0.146245
  C           -0.573823        0.306802       -1.244857
  C            0.172762       -0.788129       -1.957711
  O            0.408222       -0.687945       -3.151027
  O            0.546344       -1.903284       -1.303739
  H           -0.087472       -1.004114        2.571270
  H           -1.081184        0.285863        2.081386
  H            1.280979        0.732860        1.731174
  H            1.368045       -0.703734        0.677139
  H            1.158667        1.443130       -0.611175
  H           -0.355788        1.834342        0.265274
  H           -1.517364       -0.100802       -0.829235
  H           -0.852734        1.086771       -1.985872
  H           -0.968720       -1.133893        1.131516
  O           -3.332339       -2.802688        4.105033
  H           -3.055266       -3.702679        3.798672
  H           -3.453444       -2.283022        3.270830
  O            2.350371       -2.562539        2.981524
  H            2.631799       -2.112872        3.817711
  H            2.126220       -3.486084        3.259796
  O           -1.688557       -4.394779       -0.290248
  H           -1.828769       -3.426800       -0.445066
  H           -0.886075       -4.439832        0.288203
  O            3.164516       -3.572000        0.874644
  H            3.536553       -2.697883        0.595149
  H            2.481266       -3.781448        0.189142
  O           -0.250632        3.479619        3.851086
  H            0.131155        2.663221        4.261384
  H           -1.074118        3.167773        3.398056
  O           -1.323256       -3.055959        4.981205
  H           -0.908624       -3.896206        4.660774
  H           -0.566529       -2.423100        5.067612
  O           -1.445295       -3.587877        2.264432
  H           -1.322687       -2.768143        2.806294
  H           -2.256517       -3.409781        1.725160
