          37
  Built with Packmol                                             
  N           -0.443767       -0.471812        1.745205
  C            0.693510        0.104360        1.026899
  C            0.252325        0.999585       -0.146245
  C           -0.573823        0.306802       -1.244857
  C            0.172762       -0.788129       -1.957711
  O            0.408222       -0.687945       -3.151027
  O            0.546344       -1.903284       -1.303739
  H           -0.087472       -1.004114        2.571270
  H           -1.081184        0.285863        2.081386
  H            1.280979        0.732860        1.731174
  H            1.368045       -0.703734        0.677139
  H            1.158667        1.443130       -0.611175
  H           -0.355788        1.834342        0.265274
  H           -1.517364       -0.100802       -0.829235
  H           -0.852734        1.086771       -1.985872
  H           -0.968720       -1.133893        1.131516
  O           -2.241648       -3.497959        4.413101
  H           -2.827118       -2.703618        4.495921
  H           -2.684671       -4.062646        3.730846
  O            2.253686       -3.279361        3.714497
  H            2.395459       -2.350655        4.027572
  H            1.980629       -3.775971        4.526551
  O            3.787100       -2.792146        1.107049
  H            3.189930       -2.558874        1.861756
  H            3.708024       -3.775652        1.022938
  O           -2.265886       -2.890911        1.384197
  H           -2.347156       -2.455546        2.269896
  H           -2.346713       -3.859179        1.575345
  O           -0.112175       -3.211479        4.882848
  H           -0.202967       -2.775200        5.767172
  H           -0.295607       -2.489733        4.230125
  O           -0.413656       -4.155552        2.598745
  H            0.424842       -4.358260        3.084996
  H           -0.244696       -3.280588        2.166884
  O            1.523802       -4.157697        0.216629
  H            1.869022       -3.274146       -0.067575
  H            1.544939       -4.125729        1.206146
