          37
  Built with Packmol                                             
  N           -0.443767       -0.471812        1.745205
  C            0.693510        0.104360        1.026899
  C            0.252325        0.999585       -0.146245
  C           -0.573823        0.306802       -1.244857
  C            0.172762       -0.788129       -1.957711
  O            0.408222       -0.687945       -3.151027
  O            0.546344       -1.903284       -1.303739
  H           -0.087472       -1.004114        2.571270
  H           -1.081184        0.285863        2.081386
  H            1.280979        0.732860        1.731174
  H            1.368045       -0.703734        0.677139
  H            1.158667        1.443130       -0.611175
  H           -0.355788        1.834342        0.265274
  H           -1.517364       -0.100802       -0.829235
  H           -0.852734        1.086771       -1.985872
  H           -0.968720       -1.133893        1.131516
  O            2.704374       -2.011479       -0.541090
  H            2.975994       -2.530985       -1.339180
  H            3.453405       -2.126275        0.096396
  O            3.346418        2.049310       -0.184750
  H            2.972783        2.921939        0.097255
  H            3.037680        1.411908        0.507358
  O            2.014085       -3.880116        2.069661
  H            2.236788       -3.986407        1.110643
  H            2.633054       -3.177418        2.391696
  O            2.465914        3.033285       -3.107670
  H            2.639308        2.065422       -3.225088
  H            1.844363        3.082441       -2.338339
  O           -1.825259        3.812383        2.106516
  H           -1.129207        4.461126        1.832188
  H           -1.769763        3.792131        3.095011
  O            1.908213       -2.325453        4.241056
  H            0.936564       -2.399670        4.064984
  H            2.059979       -1.358497        4.391303
  O            2.140535        0.104016       -4.253453
  H            2.212068       -0.869216       -4.421721
  H            2.739791        0.516643       -4.925201
