 xtb: 6.7.1 (edcfbbe)
          06092517523D

 34 26  0     0  0            999 V2000
    0.4891   -0.7967    0.3516 C   0  0  0  0  0  0  0  0  0  0  0  0
    0.5867   -0.2509    1.7865 C   0  0  0  0  0  0  0  0  0  0  0  0
    0.8357   -1.1173    2.6785 O   0  0  0  0  0  0  0  0  0  0  0  0
    0.4258    0.9594    1.9993 O   0  0  0  0  0  0  0  0  0  0  0  0
   -0.1296    0.1680   -0.6417 C   0  0  0  0  0  0  0  0  0  0  0  0
   -0.2122   -0.4941   -1.9586 N   0  0  0  0  0  0  0  0  0  0  0  0
    1.5076   -1.0440    0.0493 H   0  0  0  0  0  0  0  0  0  0  0  0
   -0.0881   -1.7190    0.3998 H   0  0  0  0  0  0  0  0  0  0  0  0
   -1.1242    0.4578   -0.3006 H   0  0  0  0  0  0  0  0  0  0  0  0
    0.4810    1.0689   -0.7033 H   0  0  0  0  0  0  0  0  0  0  0  0
   -0.7584   -1.3837   -1.8677 H   0  0  0  0  0  0  0  0  0  0  0  0
    0.7521   -0.7621   -2.2855 H   0  0  0  0  0  0  0  0  0  0  0  0
   -0.6468    0.1097   -2.6558 H   0  0  0  0  0  0  0  0  0  0  0  0
    3.6045   -2.1692   -0.4872 O   0  0  0  0  0  0  0  0  0  0  0  0
    3.1282   -2.6540    0.2215 H   0  0  0  0  0  0  0  0  0  0  0  0
    4.4544   -1.9171   -0.1194 H   0  0  0  0  0  0  0  0  0  0  0  0
   -1.0177   -3.0711    2.9521 O   0  0  0  0  0  0  0  0  0  0  0  0
   -0.9029   -3.4821    3.8142 H   0  0  0  0  0  0  0  0  0  0  0  0
   -0.3777   -2.3290    2.9217 H   0  0  0  0  0  0  0  0  0  0  0  0
   -0.3974   -4.2647    0.5853 O   0  0  0  0  0  0  0  0  0  0  0  0
   -0.5200   -5.2164    0.6537 H   0  0  0  0  0  0  0  0  0  0  0  0
   -0.7260   -3.8816    1.4255 H   0  0  0  0  0  0  0  0  0  0  0  0
   -1.5295   -2.8858   -1.5921 O   0  0  0  0  0  0  0  0  0  0  0  0
   -1.0712   -3.4028   -0.9062 H   0  0  0  0  0  0  0  0  0  0  0  0
   -2.4719   -2.9712   -1.4253 H   0  0  0  0  0  0  0  0  0  0  0  0
   -4.2611    1.4306    4.2561 O   0  0  0  0  0  0  0  0  0  0  0  0
   -3.6199    2.1235    4.0695 H   0  0  0  0  0  0  0  0  0  0  0  0
   -3.7846    0.5952    4.2229 H   0  0  0  0  0  0  0  0  0  0  0  0
    2.2705   -1.2923   -2.7656 O   0  0  0  0  0  0  0  0  0  0  0  0
    2.7850   -1.5694   -1.9880 H   0  0  0  0  0  0  0  0  0  0  0  0
    2.2942   -2.0309   -3.3817 H   0  0  0  0  0  0  0  0  0  0  0  0
    2.1188   -3.2866    1.5030 O   0  0  0  0  0  0  0  0  0  0  0  0
    1.3391   -3.7057    1.0926 H   0  0  0  0  0  0  0  0  0  0  0  0
    1.7566   -2.5315    2.0087 H   0  0  0  0  0  0  0  0  0  0  0  0
  1  2  1  0  0  0  0
  2  3  4  0  0  0  0
  2  4  2  0  0  0  0
  1  5  1  0  0  0  0
  5  6  1  0  0  0  0
  1  7  1  0  0  0  0
  1  8  1  0  0  0  0
  5  9  1  0  0  0  0
  5 10  1  0  0  0  0
  6 11  1  0  0  0  0
  6 12  1  0  0  0  0
  6 13  1  0  0  0  0
 14 15  1  0  0  0  0
 14 16  1  0  0  0  0
 17 18  1  0  0  0  0
 17 19  1  0  0  0  0
 20 21  1  0  0  0  0
 20 22  1  0  0  0  0
 23 24  1  0  0  0  0
 23 25  1  0  0  0  0
 26 27  1  0  0  0  0
 26 28  1  0  0  0  0
 29 30  1  0  0  0  0
 29 31  1  0  0  0  0
 32 33  1  0  0  0  0
 32 34  1  0  0  0  0
M  END
