 xtb: 6.7.1 (edcfbbe)
          06092518073D

 37 29  0     0  0            999 V2000
   -0.4240    0.8384    1.6869 N   0  0  0  0  0  0  0  0  0  0  0  0
   -0.0153    1.5691    0.4751 C   0  0  0  0  0  0  0  0  0  0  0  0
   -0.9820    1.3067   -0.6756 C   0  0  0  0  0  0  0  0  0  0  0  0
   -0.7944   -0.0519   -1.3633 C   0  0  0  0  0  0  0  0  0  0  0  0
   -1.4773   -1.2762   -0.7043 C   0  0  0  0  0  0  0  0  0  0  0  0
   -1.9592   -2.1294   -1.4754 O   0  0  0  0  0  0  0  0  0  0  0  0
   -1.4840   -1.3612    0.5488 O   0  0  0  0  0  0  0  0  0  0  0  0
    0.3625    0.7158    2.3495 H   0  0  0  0  0  0  0  0  0  0  0  0
   -1.1686    1.3752    2.1950 H   0  0  0  0  0  0  0  0  0  0  0  0
   -0.0031    2.6352    0.7001 H   0  0  0  0  0  0  0  0  0  0  0  0
    0.9887    1.2644    0.1771 H   0  0  0  0  0  0  0  0  0  0  0  0
   -0.8309    2.0756   -1.4345 H   0  0  0  0  0  0  0  0  0  0  0  0
   -2.0098    1.3874   -0.3158 H   0  0  0  0  0  0  0  0  0  0  0  0
    0.2690   -0.2992   -1.4329 H   0  0  0  0  0  0  0  0  0  0  0  0
   -1.1851   -0.0183   -2.3831 H   0  0  0  0  0  0  0  0  0  0  0  0
   -0.8098   -0.0935    1.3973 H   0  0  0  0  0  0  0  0  0  0  0  0
   -1.9171    2.5445    3.1908 O   0  0  0  0  0  0  0  0  0  0  0  0
   -1.5517    2.2750    4.0556 H   0  0  0  0  0  0  0  0  0  0  0  0
   -1.3890    3.3305    2.9471 H   0  0  0  0  0  0  0  0  0  0  0  0
    1.6300    0.9093    3.5736 O   0  0  0  0  0  0  0  0  0  0  0  0
    1.9764    1.7745    3.2609 H   0  0  0  0  0  0  0  0  0  0  0  0
    2.3818    0.3160    3.6557 H   0  0  0  0  0  0  0  0  0  0  0  0
   -0.3738    1.7409    5.3433 O   0  0  0  0  0  0  0  0  0  0  0  0
    0.3671    1.4166    4.7965 H   0  0  0  0  0  0  0  0  0  0  0  0
   -0.5619    1.0475    5.9820 H   0  0  0  0  0  0  0  0  0  0  0  0
   -0.0130    4.5163    2.6978 O   0  0  0  0  0  0  0  0  0  0  0  0
   -0.0037    5.1641    3.4070 H   0  0  0  0  0  0  0  0  0  0  0  0
    0.8289    4.0193    2.7678 H   0  0  0  0  0  0  0  0  0  0  0  0
    2.5744    3.5341   -0.0571 O   0  0  0  0  0  0  0  0  0  0  0  0
    1.8353    4.1694   -0.1346 H   0  0  0  0  0  0  0  0  0  0  0  0
    3.2705    3.8591   -0.6357 H   0  0  0  0  0  0  0  0  0  0  0  0
    2.4739    3.3088    2.6379 O   0  0  0  0  0  0  0  0  0  0  0  0
    3.2490    3.7656    2.9743 H   0  0  0  0  0  0  0  0  0  0  0  0
    2.5566    3.2969    1.6598 H   0  0  0  0  0  0  0  0  0  0  0  0
    0.4271    5.2659    0.0830 O   0  0  0  0  0  0  0  0  0  0  0  0
    0.1733    5.0914    1.0131 H   0  0  0  0  0  0  0  0  0  0  0  0
   -0.3912    5.3935   -0.4034 H   0  0  0  0  0  0  0  0  0  0  0  0
  1  2  1  0  0  0  0
  2  3  1  0  0  0  0
  3  4  1  0  0  0  0
  4  5  1  0  0  0  0
  5  6  2  0  0  0  0
  5  7  4  0  0  0  0
  1  8  1  0  0  0  0
  1  9  1  0  0  0  0
  2 10  1  0  0  0  0
  2 11  1  0  0  0  0
  3 12  1  0  0  0  0
  3 13  1  0  0  0  0
  4 14  1  0  0  0  0
  4 15  1  0  0  0  0
  1 16  1  0  0  0  0
 17 18  1  0  0  0  0
 17 19  1  0  0  0  0
 20 21  1  0  0  0  0
 20 22  1  0  0  0  0
 23 24  1  0  0  0  0
 23 25  1  0  0  0  0
 26 27  1  0  0  0  0
 26 28  1  0  0  0  0
 29 30  1  0  0  0  0
 29 31  1  0  0  0  0
 32 33  1  0  0  0  0
 32 34  1  0  0  0  0
 35 36  1  0  0  0  0
 35 37  1  0  0  0  0
M  END
