          34
  Built with Packmol                                             
  H            1.511317       -0.306828       -0.555014
  C            0.423564       -0.532721       -0.609717
  H            0.153518        0.482840       -2.377127
  H            0.306225       -1.519929       -1.108019
  N           -0.266872        0.473091       -1.420552
  H            0.312435       -1.513062        1.312585
  C           -0.165166       -0.646649        0.806799
  O            0.750464        1.631323        1.241066
  C            0.056943        0.562514        1.678499
  H           -0.170369        1.427689       -1.011410
  O           -0.378051        0.562370        2.818531
  H           -1.279945        0.228297       -1.503809
  H           -1.254063       -0.848936        0.728169
  O            0.643772       -3.984391        3.027868
  H            0.431275       -3.024592        2.908526
  H            0.863746       -4.304907        2.117102
  O           -1.110224       -3.585430        4.941835
  H           -0.211378       -3.983279        5.061850
  H           -1.333959       -3.759594        3.993035
  O            1.321653       -2.194552        5.384867
  H            1.160554       -1.345745        4.900942
  H            1.701313       -2.801831        4.700993
  O            2.587742       -1.194041        3.221832
  H            3.176879       -1.325100        4.006913
  H            3.109531       -1.547999        2.458246
  O           -3.103650       -3.166578        2.018781
  H           -2.156844       -3.404179        1.852301
  H           -3.160773       -3.047871        3.000238
  O           -2.370089        0.759648        3.788371
  H           -3.331664        0.584423        3.629374
  H           -2.336061        1.149663        4.697955
  O           -1.587998       -1.566491        4.218777
  H           -2.556875       -1.383074        4.309590
  H           -1.449658       -1.693827        3.246532
