 xtb: 6.7.1 (edcfbbe)
          06092518053D

 37 29  0     0  0            999 V2000
    0.6296   -0.8449    0.8945 N   0  0  0  0  0  0  0  0  0  0  0  0
    1.2994   -0.1685   -0.2304 C   0  0  0  0  0  0  0  0  0  0  0  0
    0.4684    0.9413   -0.8648 C   0  0  0  0  0  0  0  0  0  0  0  0
   -0.7360    0.4239   -1.6652 C   0  0  0  0  0  0  0  0  0  0  0  0
   -0.2936   -0.6486   -2.6719 C   0  0  0  0  0  0  0  0  0  0  0  0
    0.3021   -0.2848   -3.7068 O   0  0  0  0  0  0  0  0  0  0  0  0
   -0.5184   -1.8552   -2.3825 O   0  0  0  0  0  0  0  0  0  0  0  0
    1.1406   -1.7527    1.0922 H   0  0  0  0  0  0  0  0  0  0  0  0
    0.6764   -0.2626    1.7325 H   0  0  0  0  0  0  0  0  0  0  0  0
    2.2322    0.2552    0.1381 H   0  0  0  0  0  0  0  0  0  0  0  0
    1.5337   -0.9066   -0.9947 H   0  0  0  0  0  0  0  0  0  0  0  0
    1.1199    1.4880   -1.5479 H   0  0  0  0  0  0  0  0  0  0  0  0
    0.1152    1.6368   -0.1030 H   0  0  0  0  0  0  0  0  0  0  0  0
   -1.4987    0.0063   -1.0100 H   0  0  0  0  0  0  0  0  0  0  0  0
   -1.1738    1.2475   -2.2323 H   0  0  0  0  0  0  0  0  0  0  0  0
   -0.3460   -1.1123    0.6650 H   0  0  0  0  0  0  0  0  0  0  0  0
   -1.7147   -2.1196    0.0550 O   0  0  0  0  0  0  0  0  0  0  0  0
   -1.7944   -3.0278    0.3605 H   0  0  0  0  0  0  0  0  0  0  0  0
   -1.3683   -2.1579   -0.8620 H   0  0  0  0  0  0  0  0  0  0  0  0
    3.9553   -1.8038   -1.6725 O   0  0  0  0  0  0  0  0  0  0  0  0
    3.2213   -2.4319   -1.7859 H   0  0  0  0  0  0  0  0  0  0  0  0
    3.7206   -1.0311   -2.2130 H   0  0  0  0  0  0  0  0  0  0  0  0
    1.6275   -3.4336   -1.7644 O   0  0  0  0  0  0  0  0  0  0  0  0
    0.8586   -2.9026   -2.0543 H   0  0  0  0  0  0  0  0  0  0  0  0
    1.5540   -4.2767   -2.2203 H   0  0  0  0  0  0  0  0  0  0  0  0
    2.9569    0.2635   -3.2942 O   0  0  0  0  0  0  0  0  0  0  0  0
    2.0286    0.0695   -3.5205 H   0  0  0  0  0  0  0  0  0  0  0  0
    3.3470    0.6554   -4.0808 H   0  0  0  0  0  0  0  0  0  0  0  0
    4.2990   -1.7219    1.0161 O   0  0  0  0  0  0  0  0  0  0  0  0
    5.1911   -2.0343    1.1865 H   0  0  0  0  0  0  0  0  0  0  0  0
    4.2200   -1.6495    0.0390 H   0  0  0  0  0  0  0  0  0  0  0  0
    2.7388    0.1192    2.5622 O   0  0  0  0  0  0  0  0  0  0  0  0
    3.3073   -0.5225    2.1053 H   0  0  0  0  0  0  0  0  0  0  0  0
    3.2797    0.5287    3.2404 H   0  0  0  0  0  0  0  0  0  0  0  0
    1.9617   -3.1761    1.0326 O   0  0  0  0  0  0  0  0  0  0  0  0
    1.8726   -3.3910    0.0885 H   0  0  0  0  0  0  0  0  0  0  0  0
    2.8594   -2.8044    1.1325 H   0  0  0  0  0  0  0  0  0  0  0  0
  1  2  1  0  0  0  0
  2  3  1  0  0  0  0
  3  4  1  0  0  0  0
  4  5  1  0  0  0  0
  5  6  4  0  0  0  0
  5  7  4  0  0  0  0
  1  8  1  0  0  0  0
  1  9  1  0  0  0  0
  2 10  1  0  0  0  0
  2 11  1  0  0  0  0
  3 12  1  0  0  0  0
  3 13  1  0  0  0  0
  4 14  1  0  0  0  0
  4 15  1  0  0  0  0
  1 16  1  0  0  0  0
 17 18  1  0  0  0  0
 17 19  1  0  0  0  0
 20 21  1  0  0  0  0
 20 22  1  0  0  0  0
 23 24  1  0  0  0  0
 23 25  1  0  0  0  0
 26 27  1  0  0  0  0
 26 28  1  0  0  0  0
 29 30  1  0  0  0  0
 29 31  1  0  0  0  0
 32 33  1  0  0  0  0
 32 34  1  0  0  0  0
 35 36  1  0  0  0  0
 35 37  1  0  0  0  0
M  END
