         163
  Built with Packmol                                             
  H            1.511317       -0.306828       -0.555014
  C            0.423564       -0.532721       -0.609717
  H            0.153518        0.482840       -2.377127
  H            0.306225       -1.519929       -1.108019
  N           -0.266872        0.473091       -1.420552
  H            0.312435       -1.513062        1.312585
  C           -0.165166       -0.646649        0.806799
  O            0.750464        1.631323        1.241066
  C            0.056943        0.562514        1.678499
  H           -0.170369        1.427689       -1.011410
  O           -0.378051        0.562370        2.818531
  H           -1.279945        0.228297       -1.503809
  H           -1.254063       -0.848936        0.728169
  O           -1.276376        3.191894       -3.926097
  H           -1.410687        3.636323       -4.800771
  H           -0.425777        3.567183       -3.585140
  O            2.490399       -1.773242        4.704758
  H            1.807835       -2.370625        4.307453
  H            1.981331       -0.976985        5.000457
  O            1.876542        2.216323       -1.770905
  H            1.819342        1.621962       -0.980922
  H            2.739462        1.981451       -2.196132
  O           -1.453947        0.188594       -6.184744
  H           -1.309745       -0.598004       -5.600724
  H           -2.376832        0.483631       -5.980171
  O           -2.639212       -1.484301       -0.928805
  H           -1.747542       -1.705259       -1.298551
  H           -2.997902       -0.794194       -1.541754
  O            0.386537        1.956413       -5.927111
  H            0.568987        1.682813       -6.861170
  H           -0.601376        1.985870       -5.865683
  O            1.741813        2.886035       -3.674249
  H            1.503879        3.659589       -3.103624
  H            1.299977        3.071755       -4.540795
  O           -0.432308       -4.542684       -1.892120
  H            0.283274       -4.028686       -1.440060
  H           -0.475941       -4.158226       -2.803658
  O            0.397775       -3.739569        1.177151
  H            1.131576       -4.392461        1.303158
  H            0.648546       -3.239073        0.360309
  O           -0.359048        4.252834        1.944189
  H            0.553857        4.635620        1.917917
  H           -0.224195        3.280467        1.814069
  O           -0.608564        2.912430        4.252387
  H           -0.927728        3.062005        5.177791
  H           -0.449345        3.822038        3.894792
  O            2.812351       -1.584143       -4.121993
  H            3.026634       -2.293943       -3.465581
  H            2.704032       -2.064990       -4.980868
  O           -1.890924       -0.816463        4.072105
  H           -2.707211       -0.278798        3.913351
  H           -2.229134       -1.710739        4.329976
  O            2.180523       -3.778013       -0.860980
  H            2.602565       -4.003222        0.006068
  H            2.941939       -3.632563       -1.477180
  O            1.292264       -0.194019       -5.148158
  H            0.593136       -0.030518       -5.830140
  H            1.547350        0.709369       -4.832827
  O            3.619351        0.226929        2.873005
  H            3.011181       -0.343183        3.407526
  H            3.575675       -0.152245        1.959258
  O           -2.178921        3.556678        1.495333
  H           -2.777350        3.186391        0.798641
  H           -2.230933        2.904922        2.239054
  O           -2.005925        1.584069        3.722404
  H           -2.957888        1.851509        3.775817
  H           -1.768358        1.326097        4.648485
  O           -3.088203        0.700385        2.145589
  H           -2.150219        0.506012        1.894559
  H           -3.366423        1.421390        1.526430
  O            1.363867       -1.577960        6.804788
  H            1.303836       -2.390724        6.242275
  H            0.520506       -1.090359        6.627024
  O            1.499372       -3.506393       -4.295465
  H            0.536025       -3.668859       -4.457267
  H            1.746256       -4.158431       -3.592253
  O           -2.176508        4.958943        0.071458
  H           -1.253976        4.599185        0.060579
  H           -2.387208        5.130346       -0.880823
  O           -0.373530        0.787411       -4.282261
  H           -1.350783        0.941273       -4.326003
  H            0.001385        1.655506       -3.988217
  O            0.459506       -1.022639        3.704112
  H           -0.231480       -1.555944        3.236422
  H            1.101965       -0.771350        2.993680
  O           -3.119039       -2.996326       -2.145488
  H           -2.313805       -3.415264       -2.541341
  H           -3.388547       -2.306635       -2.802987
  O            3.394306        0.364908       -0.588820
  H            3.413256        0.955207        0.206038
  H            4.020285        0.789353       -1.228046
  O            0.597275       -2.471511       -2.842492
  H            1.423882       -2.645272       -2.325637
  H            0.855964       -1.775351       -3.497514
  O            2.188252       -0.797945       -2.370669
  H            3.167356       -0.684746       -2.275005
  H            1.928462       -0.137584       -3.061353
  O           -1.901166       -2.413899        2.489536
  H           -2.251593       -3.240395        2.907525
  H           -1.162629       -2.724188        1.907387
  O           -1.835762        1.307633        0.089242
  H           -2.054639        1.969387       -0.614167
  H           -1.196098        1.777441        0.681461
  O           -0.904351        0.186096        6.045538
  H           -1.741554       -0.342089        6.018646
  H           -0.432966       -0.053302        5.208222
  O           -3.279362        3.800111       -2.230077
  H           -2.294681        3.710987       -2.285503
  H           -3.627443        2.980994       -2.664244
  O            3.552090        1.907761        3.954124
  H            3.341861        2.200958        3.031925
  H            2.784785        2.222180        4.495416
  O           -0.527154       -2.918045        5.635030
  H           -0.739997       -3.570887        4.921514
  H           -0.442774       -2.052193        5.161962
  O           -1.300799       -4.388111        0.344322
  H           -1.439149       -4.608851        1.299698
  H           -0.615337       -5.033481        0.037315
  O            3.222931        3.857123       -1.244617
  H            3.847279        3.131124       -0.992179
  H            3.284311        3.905057       -2.231809
  O           -2.588763       -2.867936        0.513617
  H           -3.293959       -2.431119        1.054451
  H           -3.073000       -3.539496       -0.029646
  O            0.191293       -3.508929        3.152745
  H           -0.487841       -4.221897        3.047561
  H            1.009793       -3.986417        3.440280
  O            2.371927        3.005439        0.351668
  H            1.525185        3.390319        0.691528
  H            2.802360        2.608755        1.150406
  O            1.150813        2.527416        3.383592
  H            1.410138        1.592162        3.186968
  H            1.573329        3.058820        2.662688
  O            0.165159       -1.928102       -5.368172
  H           -0.489007       -2.556351       -5.765641
  H            0.959572       -1.992417       -5.955865
  O            2.456538       -3.250213        2.272402
  H            3.307481       -2.820955        2.541185
  H            1.787293       -2.521480        2.313302
  O            2.233370       -2.041657        0.129148
  H            2.480671       -1.381248        0.824356
  H            2.814756       -1.820322       -0.641315
  O            0.563837        1.677542        5.300589
  H            1.172047        1.038685        5.750648
  H            1.021299        2.552359        5.378285
  O           -4.156795       -0.604336        0.578525
  H           -4.444711       -1.269047       -0.096660
  H           -3.773710        0.138622        0.047609
  O            4.430326       -1.737826        1.090734
  H            4.076453       -2.580952        0.710570
  H            4.399380       -1.094343        0.338680
  O            3.497328        0.470705       -4.462788
  H            3.450853        1.294219       -5.010763
  H            3.629322        0.795963       -3.536830
  O           -3.818071       -1.131045        2.477781
  H           -3.756330       -1.931413        3.057618
  H           -4.443358       -0.527969        2.953100
  O           -1.996761       -1.362926       -3.885569
  H           -1.114519       -1.809912       -3.835951
  H           -1.937929       -0.624244       -3.228682
  O           -2.686881        1.186181       -2.834211
  H           -1.923502        1.771755       -2.599760
  H           -3.225717        1.137012       -2.004844
