34

N       -0.1874080348      0.5510102872      0.0456623387                 
C        0.3226931643      1.9044367222     -0.2235564911                 
C        0.0368891002      2.3288710154     -1.6611203401                 
C        0.8870703094      1.5950210493     -2.7116419190                 
C        0.2797982555      0.2592981518     -3.1711216291                 
O       -0.0926643503      0.1631940310     -4.3579598424                 
O        0.1867662830     -0.6683598161     -2.3261660959                 
H        0.1574625000      0.1916811545      0.9543588456                 
H       -1.2324684304      0.5364274734      0.0310093221                 
H       -0.1578857791      2.6059917499      0.4587467719                 
H        1.3989533801      1.9199699377     -0.0442006705                 
H        0.2456150212      3.3953335681     -1.7487350357                 
H       -1.0217123875      2.1795092732     -1.8827071526                 
H        1.8857853322      1.3947598593     -2.3174712664                 
H        0.9856328377      2.2103042130     -3.6074271091                 
H        0.1072328821     -0.0793987760     -0.7365382530                 
O        0.7769441698     -0.3199565518      2.5162893077                 
H        1.1237531519     -1.2139001787      2.5832333363                 
H        0.2760691956     -0.1403155776      3.3179270017                 
O       -2.3627353784     -1.6747966946     -2.0935119784                 
H       -2.6709288372     -1.5831053525     -3.0096048021                 
H       -1.4003738392     -1.5125007776     -2.1530457207                 
O       -2.4271716569     -1.1778953310     -4.8563562065                 
H       -2.2745050149     -1.7875305995     -5.5845085580                 
H       -1.5909105260     -0.6780737406     -4.7474005525                 
O       -2.9031692714      0.2915169071     -0.2873036051                 
H       -2.8252717911     -0.4121747018     -0.9663080629                 
H       -3.5033482242     -0.0484482766      0.3832735656                 
H        2.6381911084     -1.9392659784     -5.2763672842                 
H        2.5347826213     -3.0152837005     -6.3855590063                 
O        3.0032515615     -2.7990968334     -5.5738576139                 
H       -1.3334964715     -1.9322988738      0.2996882590                 
H       -0.6559226847     -1.9371830736      1.6924057853                 
O       -0.9267881051     -1.3529873584      0.9779557378                 

