 xtb: 6.7.1 (edcfbbe)
          06112501313D

 34 27  0     0  0            999 V2000
   -0.0872    0.8025    0.0999 N   0  0  0  0  0  0  0  0  0  0  0  0
    0.2854    2.1866   -0.2294 C   0  0  0  0  0  0  0  0  0  0  0  0
   -0.1244    2.5485   -1.6547 C   0  0  0  0  0  0  0  0  0  0  0  0
    0.7297    1.8819   -2.7462 C   0  0  0  0  0  0  0  0  0  0  0  0
    0.2482    0.4772   -3.1391 C   0  0  0  0  0  0  0  0  0  0  0  0
   -0.1699    0.3017   -4.3015 O   0  0  0  0  0  0  0  0  0  0  0  0
    0.2994   -0.4303   -2.2686 O   0  0  0  0  0  0  0  0  0  0  0  0
    0.3322    0.5005    0.9985 H   0  0  0  0  0  0  0  0  0  0  0  0
   -1.1303    0.6976    0.1432 H   0  0  0  0  0  0  0  0  0  0  0  0
   -0.2136    2.8611    0.4669 H   0  0  0  0  0  0  0  0  0  0  0  0
    1.3648    2.3016   -0.1178 H   0  0  0  0  0  0  0  0  0  0  0  0
   -0.0266    3.6281   -1.7714 H   0  0  0  0  0  0  0  0  0  0  0  0
   -1.1748    2.2939   -1.8085 H   0  0  0  0  0  0  0  0  0  0  0  0
    1.7679    1.8022   -2.4163 H   0  0  0  0  0  0  0  0  0  0  0  0
    0.7020    2.4811   -3.6578 H   0  0  0  0  0  0  0  0  0  0  0  0
    0.2268    0.1794   -0.6777 H   0  0  0  0  0  0  0  0  0  0  0  0
    1.0759    0.0718    2.5264 O   0  0  0  0  0  0  0  0  0  0  0  0
    1.5465   -0.7653    2.5719 H   0  0  0  0  0  0  0  0  0  0  0  0
    0.5500    0.1546    3.3276 H   0  0  0  0  0  0  0  0  0  0  0  0
   -2.0671   -1.6906   -1.8093 O   0  0  0  0  0  0  0  0  0  0  0  0
   -2.4312   -1.7852   -2.7016 H   0  0  0  0  0  0  0  0  0  0  0  0
   -1.1506   -1.3780   -1.9585 H   0  0  0  0  0  0  0  0  0  0  0  0
   -2.2539   -1.4533   -4.6084 O   0  0  0  0  0  0  0  0  0  0  0  0
   -2.1307   -1.9526   -5.4207 H   0  0  0  0  0  0  0  0  0  0  0  0
   -1.5076   -0.8188   -4.5650 H   0  0  0  0  0  0  0  0  0  0  0  0
   -2.7796    0.3401   -0.0463 O   0  0  0  0  0  0  0  0  0  0  0  0
   -2.6900   -0.2915   -0.7849 H   0  0  0  0  0  0  0  0  0  0  0  0
   -3.0672   -0.2027    0.6980 H   0  0  0  0  0  0  0  0  0  0  0  0
    3.1585   -2.8120   -5.5063 H   0  0  0  0  0  0  0  0  0  0  0  0
    3.1418   -3.3297   -6.9646 H   0  0  0  0  0  0  0  0  0  0  0  0
    3.6897   -3.2524   -6.1769 O   0  0  0  0  0  0  0  0  0  0  0  0
   -2.3097   -2.3532   -0.0401 H   0  0  0  0  0  0  0  0  0  0  0  0
   -2.1026   -3.3072    1.1568 H   0  0  0  0  0  0  0  0  0  0  0  0
   -2.4220   -2.4329    0.9204 O   0  0  0  0  0  0  0  0  0  0  0  0
  1  2  1  0  0  0  0
  2  3  1  0  0  0  0
  3  4  1  0  0  0  0
  4  5  1  0  0  0  0
  5  6  2  0  0  0  0
  5  7  4  0  0  0  0
  1  8  1  0  0  0  0
  1  9  1  0  0  0  0
  2 10  1  0  0  0  0
  2 11  1  0  0  0  0
  3 12  1  0  0  0  0
  3 13  1  0  0  0  0
  4 14  1  0  0  0  0
  4 15  1  0  0  0  0
  1 16  1  0  0  0  0
 17 18  1  0  0  0  0
 17 19  1  0  0  0  0
 20 21  1  0  0  0  0
 20 22  1  0  0  0  0
 23 24  1  0  0  0  0
 23 25  1  0  0  0  0
 26 27  1  0  0  0  0
 26 28  1  0  0  0  0
 29 31  1  0  0  0  0
 30 31  1  0  0  0  0
 32 34  1  0  0  0  0
 33 34  1  0  0  0  0
M  END
