 xtb: 6.7.1 (edcfbbe)
          06112501323D

 34 27  0     0  0            999 V2000
   -0.2505    0.6262   -0.2372 N   0  0  0  0  0  0  0  0  0  0  0  0
    0.2955    1.9792   -0.4185 C   0  0  0  0  0  0  0  0  0  0  0  0
   -0.0563    2.5404   -1.7941 C   0  0  0  0  0  0  0  0  0  0  0  0
    0.7255    1.8986   -2.9534 C   0  0  0  0  0  0  0  0  0  0  0  0
    0.0780    0.6283   -3.5184 C   0  0  0  0  0  0  0  0  0  0  0  0
   -0.3246    0.6422   -4.6964 O   0  0  0  0  0  0  0  0  0  0  0  0
   -0.0197   -0.3762   -2.7599 O   0  0  0  0  0  0  0  0  0  0  0  0
    0.1565    0.1598    0.6063 H   0  0  0  0  0  0  0  0  0  0  0  0
   -1.2913    0.6542   -0.1693 H   0  0  0  0  0  0  0  0  0  0  0  0
   -0.1177    2.6318    0.3512 H   0  0  0  0  0  0  0  0  0  0  0  0
    1.3798    1.9425   -0.3019 H   0  0  0  0  0  0  0  0  0  0  0  0
    0.1693    3.6069   -1.7938 H   0  0  0  0  0  0  0  0  0  0  0  0
   -1.1282    2.4295   -1.9699 H   0  0  0  0  0  0  0  0  0  0  0  0
    1.7368    1.6438   -2.6285 H   0  0  0  0  0  0  0  0  0  0  0  0
    0.7979    2.5992   -3.7870 H   0  0  0  0  0  0  0  0  0  0  0  0
   -0.0307    0.0643   -1.0857 H   0  0  0  0  0  0  0  0  0  0  0  0
    0.8870   -0.6499    1.8875 O   0  0  0  0  0  0  0  0  0  0  0  0
    0.9777   -1.5478    1.5107 H   0  0  0  0  0  0  0  0  0  0  0  0
    0.4403   -0.7475    2.7335 H   0  0  0  0  0  0  0  0  0  0  0  0
   -2.6659   -1.1329   -2.4830 O   0  0  0  0  0  0  0  0  0  0  0  0
   -2.9789   -1.1073   -3.3993 H   0  0  0  0  0  0  0  0  0  0  0  0
   -1.7037   -0.9902   -2.5628 H   0  0  0  0  0  0  0  0  0  0  0  0
   -2.6123   -0.7518   -5.2853 O   0  0  0  0  0  0  0  0  0  0  0  0
   -3.0600   -0.2439   -5.9686 H   0  0  0  0  0  0  0  0  0  0  0  0
   -1.7453   -0.3146   -5.1522 H   0  0  0  0  0  0  0  0  0  0  0  0
   -3.0079    0.5876   -0.3780 O   0  0  0  0  0  0  0  0  0  0  0  0
   -3.0350   -0.0091   -1.1519 H   0  0  0  0  0  0  0  0  0  0  0  0
   -3.5515    0.1750    0.2996 H   0  0  0  0  0  0  0  0  0  0  0  0
    0.7833   -1.9815   -2.4121 H   0  0  0  0  0  0  0  0  0  0  0  0
    0.9253   -3.4837   -2.7621 H   0  0  0  0  0  0  0  0  0  0  0  0
    1.1530   -2.8240   -2.1013 O   0  0  0  0  0  0  0  0  0  0  0  0
    1.0367   -2.9987   -0.2923 H   0  0  0  0  0  0  0  0  0  0  0  0
   -0.0190   -3.5927    0.6680 H   0  0  0  0  0  0  0  0  0  0  0  0
    0.7992   -3.0862    0.6480 O   0  0  0  0  0  0  0  0  0  0  0  0
  1  2  1  0  0  0  0
  2  3  1  0  0  0  0
  3  4  1  0  0  0  0
  4  5  1  0  0  0  0
  5  6  2  0  0  0  0
  5  7  4  0  0  0  0
  1  8  1  0  0  0  0
  1  9  1  0  0  0  0
  2 10  1  0  0  0  0
  2 11  1  0  0  0  0
  3 12  1  0  0  0  0
  3 13  1  0  0  0  0
  4 14  1  0  0  0  0
  4 15  1  0  0  0  0
  1 16  1  0  0  0  0
 17 18  1  0  0  0  0
 17 19  1  0  0  0  0
 20 21  1  0  0  0  0
 20 22  1  0  0  0  0
 23 24  1  0  0  0  0
 23 25  1  0  0  0  0
 26 27  1  0  0  0  0
 26 28  1  0  0  0  0
 29 31  1  0  0  0  0
 30 31  1  0  0  0  0
 32 34  1  0  0  0  0
 33 34  1  0  0  0  0
M  END
