 xtb: 6.7.1 (edcfbbe)
          06092517533D

 34 26  0     0  0            999 V2000
    0.4353   -0.7942    1.1228 C   0  0  0  0  0  0  0  0  0  0  0  0
   -0.1201    0.2059    2.1536 C   0  0  0  0  0  0  0  0  0  0  0  0
   -0.7995   -0.2420    3.1009 O   0  0  0  0  0  0  0  0  0  0  0  0
    0.1621    1.4205    2.0093 O   0  0  0  0  0  0  0  0  0  0  0  0
    0.5099   -0.2189   -0.2833 C   0  0  0  0  0  0  0  0  0  0  0  0
    1.3352   -1.0665   -1.1632 N   0  0  0  0  0  0  0  0  0  0  0  0
    1.4406   -1.0465    1.4713 H   0  0  0  0  0  0  0  0  0  0  0  0
   -0.1778   -1.6943    1.1719 H   0  0  0  0  0  0  0  0  0  0  0  0
   -0.4932   -0.1170   -0.6984 H   0  0  0  0  0  0  0  0  0  0  0  0
    0.9665    0.7683   -0.2405 H   0  0  0  0  0  0  0  0  0  0  0  0
    0.8905   -1.9703   -1.3212 H   0  0  0  0  0  0  0  0  0  0  0  0
    2.2672   -1.2267   -0.7028 H   0  0  0  0  0  0  0  0  0  0  0  0
    1.4854   -0.5679   -2.0787 H   0  0  0  0  0  0  0  0  0  0  0  0
    4.2638    1.1862    0.9246 O   0  0  0  0  0  0  0  0  0  0  0  0
    3.5052    1.7814    0.7655 H   0  0  0  0  0  0  0  0  0  0  0  0
    4.5813    1.3836    1.8097 H   0  0  0  0  0  0  0  0  0  0  0  0
    0.8837    3.7706    3.3100 O   0  0  0  0  0  0  0  0  0  0  0  0
    0.2115    4.1389    3.8906 H   0  0  0  0  0  0  0  0  0  0  0  0
    0.5356    2.9134    3.0064 H   0  0  0  0  0  0  0  0  0  0  0  0
    3.7021   -1.3697    0.1548 O   0  0  0  0  0  0  0  0  0  0  0  0
    3.9384   -0.4623    0.4351 H   0  0  0  0  0  0  0  0  0  0  0  0
    4.4805   -1.7305   -0.2803 H   0  0  0  0  0  0  0  0  0  0  0  0
    1.6962    0.5022   -3.3438 O   0  0  0  0  0  0  0  0  0  0  0  0
    2.5829    0.6082   -3.7013 H   0  0  0  0  0  0  0  0  0  0  0  0
    1.4577    1.3638   -2.9556 H   0  0  0  0  0  0  0  0  0  0  0  0
    1.2223    2.8696   -2.0001 O   0  0  0  0  0  0  0  0  0  0  0  0
    1.5994    2.8987   -1.1018 H   0  0  0  0  0  0  0  0  0  0  0  0
    0.4554    3.4472   -1.9924 H   0  0  0  0  0  0  0  0  0  0  0  0
   -1.3056   -2.9316    3.1652 O   0  0  0  0  0  0  0  0  0  0  0  0
   -1.2697   -3.2159    4.0845 H   0  0  0  0  0  0  0  0  0  0  0  0
   -1.1806   -1.9589    3.1864 H   0  0  0  0  0  0  0  0  0  0  0  0
    2.0461    2.8227    0.6693 O   0  0  0  0  0  0  0  0  0  0  0  0
    1.3643    2.2777    1.1216 H   0  0  0  0  0  0  0  0  0  0  0  0
    2.0802    3.6309    1.1924 H   0  0  0  0  0  0  0  0  0  0  0  0
  1  2  1  0  0  0  0
  2  3  4  0  0  0  0
  2  4  4  0  0  0  0
  1  5  1  0  0  0  0
  5  6  1  0  0  0  0
  1  7  1  0  0  0  0
  1  8  1  0  0  0  0
  5  9  1  0  0  0  0
  5 10  1  0  0  0  0
  6 11  1  0  0  0  0
  6 12  1  0  0  0  0
  6 13  1  0  0  0  0
 14 15  1  0  0  0  0
 14 16  1  0  0  0  0
 17 18  1  0  0  0  0
 17 19  1  0  0  0  0
 20 21  1  0  0  0  0
 20 22  1  0  0  0  0
 23 24  1  0  0  0  0
 23 25  1  0  0  0  0
 26 27  1  0  0  0  0
 26 28  1  0  0  0  0
 29 30  1  0  0  0  0
 29 31  1  0  0  0  0
 32 33  1  0  0  0  0
 32 34  1  0  0  0  0
M  END
