          34
  Built with Packmol                                             
  H            1.511317       -0.306828       -0.555014
  C            0.423564       -0.532721       -0.609717
  H            0.153518        0.482840       -2.377127
  H            0.306225       -1.519929       -1.108019
  N           -0.266872        0.473091       -1.420552
  H            0.312435       -1.513062        1.312585
  C           -0.165166       -0.646649        0.806799
  O            0.750464        1.631323        1.241066
  C            0.056943        0.562514        1.678499
  H           -0.170369        1.427689       -1.011410
  O           -0.378051        0.562370        2.818531
  H           -1.279945        0.228297       -1.503809
  H           -1.254063       -0.848936        0.728169
  O           -2.750251       -2.651563        4.872639
  H           -2.076991       -3.371021        4.774085
  H           -2.498125       -1.980554        4.189417
  O           -0.379390       -5.126845       -0.868836
  H            0.370971       -4.513691       -0.664843
  H           -1.093033       -4.865387       -0.234039
  O           -2.441937       -2.953678       -0.942915
  H           -3.430385       -3.003562       -0.975985
  H           -2.138402       -3.570784       -1.655417
  O           -2.763067       -2.003178       -3.601782
  H           -3.677175       -1.718606       -3.854834
  H           -2.189984       -1.228477       -3.829876
  O           -1.591763       -3.584616        2.259031
  H           -2.530961       -3.398865        2.512043
  H           -1.053942       -3.022647        2.871855
  O           -1.739418       -3.564187       -4.806703
  H           -1.423713       -2.728944       -5.234851
  H           -1.126479       -3.697199       -4.040395
  O           -3.800379       -1.169287        1.704168
  H           -4.135619       -2.095661        1.804442
  H           -2.908356       -1.180357        2.134035
