 xtb: 6.7.1 (edcfbbe)
          06092517573D

 34 26  0     0  0            999 V2000
    0.6296    0.0735   -0.6206 H   0  0  0  0  0  0  0  0  0  0  0  0
   -0.1372   -0.6991   -0.5484 C   0  0  0  0  0  0  0  0  0  0  0  0
   -1.1108   -0.0412   -2.2800 H   0  0  0  0  0  0  0  0  0  0  0  0
    0.2333   -1.6262   -0.9846 H   0  0  0  0  0  0  0  0  0  0  0  0
   -1.3314   -0.2548   -1.2888 N   0  0  0  0  0  0  0  0  0  0  0  0
    0.4021   -1.1228    1.5003 H   0  0  0  0  0  0  0  0  0  0  0  0
   -0.4961   -0.9315    0.9130 C   0  0  0  0  0  0  0  0  0  0  0  0
   -1.3329    1.3285    0.9417 O   0  0  0  0  0  0  0  0  0  0  0  0
   -1.2212    0.2606    1.5707 C   0  0  0  0  0  0  0  0  0  0  0  0
   -1.6578    0.5973   -0.8090 H   0  0  0  0  0  0  0  0  0  0  0  0
   -1.6973    0.0556    2.7215 O   0  0  0  0  0  0  0  0  0  0  0  0
   -2.0898   -0.9893   -1.2250 H   0  0  0  0  0  0  0  0  0  0  0  0
   -1.1453   -1.8010    1.0155 H   0  0  0  0  0  0  0  0  0  0  0  0
   -1.4883   -2.3483    3.9081 O   0  0  0  0  0  0  0  0  0  0  0  0
   -1.3636   -2.2054    4.8499 H   0  0  0  0  0  0  0  0  0  0  0  0
   -1.5171   -1.4541    3.4958 H   0  0  0  0  0  0  0  0  0  0  0  0
   -1.3286   -4.2094   -0.4385 O   0  0  0  0  0  0  0  0  0  0  0  0
   -1.4989   -5.1265   -0.6705 H   0  0  0  0  0  0  0  0  0  0  0  0
   -1.0470   -4.2215    0.4936 H   0  0  0  0  0  0  0  0  0  0  0  0
   -3.1682   -2.2033   -0.8768 O   0  0  0  0  0  0  0  0  0  0  0  0
   -3.5337   -2.0319    0.0069 H   0  0  0  0  0  0  0  0  0  0  0  0
   -2.5763   -2.9770   -0.7744 H   0  0  0  0  0  0  0  0  0  0  0  0
   -0.6988    0.4341   -3.9144 O   0  0  0  0  0  0  0  0  0  0  0  0
   -1.1920    0.0321   -4.6361 H   0  0  0  0  0  0  0  0  0  0  0  0
   -0.5746    1.3635   -4.1263 H   0  0  0  0  0  0  0  0  0  0  0  0
   -0.5604   -4.3368    2.2203 O   0  0  0  0  0  0  0  0  0  0  0  0
   -0.9106   -3.6599    2.8258 H   0  0  0  0  0  0  0  0  0  0  0  0
    0.2703   -4.6387    2.5982 H   0  0  0  0  0  0  0  0  0  0  0  0
   -0.7747   -4.5836   -5.7094 O   0  0  0  0  0  0  0  0  0  0  0  0
   -0.0774   -4.4641   -5.0560 H   0  0  0  0  0  0  0  0  0  0  0  0
   -1.6110   -4.5531   -5.2329 H   0  0  0  0  0  0  0  0  0  0  0  0
   -3.7925   -1.7051    1.8456 O   0  0  0  0  0  0  0  0  0  0  0  0
   -3.7298   -2.4082    2.5014 H   0  0  0  0  0  0  0  0  0  0  0  0
   -3.2505   -0.9815    2.1945 H   0  0  0  0  0  0  0  0  0  0  0  0
  1  2  1  0  0  0  0
  2  4  1  0  0  0  0
  2  5  1  0  0  0  0
  3  5  1  0  0  0  0
  2  7  1  0  0  0  0
  6  7  1  0  0  0  0
  7  9  1  0  0  0  0
  8  9  2  0  0  0  0
  5 10  1  0  0  0  0
  9 11  4  0  0  0  0
  5 12  1  0  0  0  0
  7 13  1  0  0  0  0
 14 15  1  0  0  0  0
 14 16  1  0  0  0  0
 17 18  1  0  0  0  0
 17 19  1  0  0  0  0
 20 21  1  0  0  0  0
 20 22  1  0  0  0  0
 23 24  1  0  0  0  0
 23 25  1  0  0  0  0
 26 27  1  0  0  0  0
 26 28  1  0  0  0  0
 29 30  1  0  0  0  0
 29 31  1  0  0  0  0
 32 33  1  0  0  0  0
 32 34  1  0  0  0  0
M  END
