 xtb: 6.7.1 (edcfbbe)
          06092518013D

 37 29  0     0  0            999 V2000
    0.1075   -1.0811    1.9674 N   0  0  0  0  0  0  0  0  0  0  0  0
   -0.1909   -1.2439    0.5328 C   0  0  0  0  0  0  0  0  0  0  0  0
    0.2037   -0.0313   -0.3009 C   0  0  0  0  0  0  0  0  0  0  0  0
    0.0286   -0.3876   -1.7710 C   0  0  0  0  0  0  0  0  0  0  0  0
    0.1074    0.7836   -2.7645 C   0  0  0  0  0  0  0  0  0  0  0  0
    0.3449    1.9338   -2.3523 O   0  0  0  0  0  0  0  0  0  0  0  0
   -0.0895    0.4757   -3.9743 O   0  0  0  0  0  0  0  0  0  0  0  0
    1.1468   -1.0699    2.1117 H   0  0  0  0  0  0  0  0  0  0  0  0
   -0.2996   -0.2208    2.3322 H   0  0  0  0  0  0  0  0  0  0  0  0
   -1.2565   -1.4311    0.3998 H   0  0  0  0  0  0  0  0  0  0  0  0
    0.3639   -2.1043    0.1632 H   0  0  0  0  0  0  0  0  0  0  0  0
    1.2439    0.2442   -0.1243 H   0  0  0  0  0  0  0  0  0  0  0  0
   -0.4142    0.8403   -0.0750 H   0  0  0  0  0  0  0  0  0  0  0  0
   -0.9475   -0.8493   -1.9374 H   0  0  0  0  0  0  0  0  0  0  0  0
    0.7919   -1.1029   -2.0815 H   0  0  0  0  0  0  0  0  0  0  0  0
   -0.2706   -1.9179    2.4769 H   0  0  0  0  0  0  0  0  0  0  0  0
   -0.1011   -4.7225    0.4759 O   0  0  0  0  0  0  0  0  0  0  0  0
   -0.2593   -5.6646    0.3673 H   0  0  0  0  0  0  0  0  0  0  0  0
   -0.2435   -4.3335   -0.4101 H   0  0  0  0  0  0  0  0  0  0  0  0
   -0.8065   -3.4683    2.8703 O   0  0  0  0  0  0  0  0  0  0  0  0
   -0.5960   -3.9533    2.0514 H   0  0  0  0  0  0  0  0  0  0  0  0
   -1.7216   -3.6644    3.0846 H   0  0  0  0  0  0  0  0  0  0  0  0
    2.7722   -1.5016    2.2637 O   0  0  0  0  0  0  0  0  0  0  0  0
    3.1053   -1.7205    3.1387 H   0  0  0  0  0  0  0  0  0  0  0  0
    2.7590   -2.3324    1.7515 H   0  0  0  0  0  0  0  0  0  0  0  0
   -0.9057   -2.0880   -4.2822 O   0  0  0  0  0  0  0  0  0  0  0  0
   -0.8196   -2.2994   -5.2163 H   0  0  0  0  0  0  0  0  0  0  0  0
   -0.6127   -1.1497   -4.1954 H   0  0  0  0  0  0  0  0  0  0  0  0
   -0.1052   -3.8409   -2.1066 O   0  0  0  0  0  0  0  0  0  0  0  0
    0.8186   -3.5261   -2.0960 H   0  0  0  0  0  0  0  0  0  0  0  0
   -0.5402   -3.3070   -2.7859 H   0  0  0  0  0  0  0  0  0  0  0  0
    2.4907   -3.8822    0.8538 O   0  0  0  0  0  0  0  0  0  0  0  0
    1.5560   -4.1783    0.8028 H   0  0  0  0  0  0  0  0  0  0  0  0
    3.0136   -4.6660    1.0455 H   0  0  0  0  0  0  0  0  0  0  0  0
    2.4598   -2.8643   -1.7147 O   0  0  0  0  0  0  0  0  0  0  0  0
    3.3052   -2.9570   -2.1595 H   0  0  0  0  0  0  0  0  0  0  0  0
    2.5907   -3.1638   -0.7904 H   0  0  0  0  0  0  0  0  0  0  0  0
  1  2  1  0  0  0  0
  2  3  1  0  0  0  0
  3  4  1  0  0  0  0
  4  5  1  0  0  0  0
  5  6  2  0  0  0  0
  5  7  4  0  0  0  0
  1  8  1  0  0  0  0
  1  9  1  0  0  0  0
  2 10  1  0  0  0  0
  2 11  1  0  0  0  0
  3 12  1  0  0  0  0
  3 13  1  0  0  0  0
  4 14  1  0  0  0  0
  4 15  1  0  0  0  0
  1 16  1  0  0  0  0
 17 18  1  0  0  0  0
 17 19  1  0  0  0  0
 20 21  1  0  0  0  0
 20 22  1  0  0  0  0
 23 24  1  0  0  0  0
 23 25  1  0  0  0  0
 26 27  1  0  0  0  0
 26 28  1  0  0  0  0
 29 30  1  0  0  0  0
 29 31  1  0  0  0  0
 32 33  1  0  0  0  0
 32 34  1  0  0  0  0
 35 36  1  0  0  0  0
 35 37  1  0  0  0  0
M  END
