          34
  Built with Packmol                                             
  H            1.511317       -0.306828       -0.555014
  C            0.423564       -0.532721       -0.609717
  H            0.153518        0.482840       -2.377127
  H            0.306225       -1.519929       -1.108019
  N           -0.266872        0.473091       -1.420552
  H            0.312435       -1.513062        1.312585
  C           -0.165166       -0.646649        0.806799
  O            0.750464        1.631323        1.241066
  C            0.056943        0.562514        1.678499
  H           -0.170369        1.427689       -1.011410
  O           -0.378051        0.562370        2.818531
  H           -1.279945        0.228297       -1.503809
  H           -1.254063       -0.848936        0.728169
  O            2.073277       -3.225117       -2.803594
  H            2.199370       -4.194748       -2.960206
  H            2.786229       -2.792745       -3.337792
  O           -1.704582       -4.375096        0.564973
  H           -0.889292       -3.868039        0.322474
  H           -2.141225       -3.824043        1.262323
  O            0.222577       -3.861443        2.283890
  H            0.157640       -4.815320        2.025987
  H           -0.591153       -3.694208        2.822860
  O            2.179418       -3.432188        4.025155
  H            1.389267       -2.858281        3.861132
  H            1.978085       -4.274639        3.545203
  O            0.424230       -3.705508       -4.173470
  H            0.170769       -3.923571       -5.105573
  H           -0.288057       -3.093450       -3.859393
  O            0.726914       -3.800818       -1.170048
  H           -0.084202       -3.606338       -1.703788
  H            0.872177       -4.773601       -1.284953
  O            2.244013       -3.535052        1.491767
  H            2.889508       -2.875115        1.133395
  H            2.487189       -4.386215        1.047921
