 xtb: 6.7.1 (edcfbbe)
          06092518083D

 37 29  0     0  0            999 V2000
    0.1616    0.1725    2.1460 N   0  0  0  0  0  0  0  0  0  0  0  0
   -0.7342    1.1934    1.5878 C   0  0  0  0  0  0  0  0  0  0  0  0
   -1.3767    0.6886    0.2975 C   0  0  0  0  0  0  0  0  0  0  0  0
   -0.4449    0.7013   -0.9233 C   0  0  0  0  0  0  0  0  0  0  0  0
    0.5015   -0.5107   -1.1019 C   0  0  0  0  0  0  0  0  0  0  0  0
    0.6350   -0.9630   -2.2513 O   0  0  0  0  0  0  0  0  0  0  0  0
    1.1047   -0.9516   -0.0890 O   0  0  0  0  0  0  0  0  0  0  0  0
    0.8294    0.5556    2.8388 H   0  0  0  0  0  0  0  0  0  0  0  0
   -0.3898   -0.5954    2.5637 H   0  0  0  0  0  0  0  0  0  0  0  0
   -1.5078    1.4217    2.3222 H   0  0  0  0  0  0  0  0  0  0  0  0
   -0.1645    2.0987    1.3750 H   0  0  0  0  0  0  0  0  0  0  0  0
   -2.2306    1.3248    0.0626 H   0  0  0  0  0  0  0  0  0  0  0  0
   -1.7509   -0.3253    0.4490 H   0  0  0  0  0  0  0  0  0  0  0  0
    0.1937    1.5885   -0.9066 H   0  0  0  0  0  0  0  0  0  0  0  0
   -1.0332    0.7426   -1.8420 H   0  0  0  0  0  0  0  0  0  0  0  0
    0.6934   -0.2554    1.3442 H   0  0  0  0  0  0  0  0  0  0  0  0
    1.3682   -2.7325    2.1209 O   0  0  0  0  0  0  0  0  0  0  0  0
    1.4648   -2.3261    1.2472 H   0  0  0  0  0  0  0  0  0  0  0  0
    0.4096   -2.7381    2.3027 H   0  0  0  0  0  0  0  0  0  0  0  0
    2.2178   -1.5913    4.4133 O   0  0  0  0  0  0  0  0  0  0  0  0
    2.8656   -2.1871    4.7955 H   0  0  0  0  0  0  0  0  0  0  0  0
    1.9576   -1.9996    3.5536 H   0  0  0  0  0  0  0  0  0  0  0  0
   -1.2245   -2.1594    2.9709 O   0  0  0  0  0  0  0  0  0  0  0  0
   -0.9816   -2.0514    3.9279 H   0  0  0  0  0  0  0  0  0  0  0  0
   -2.1105   -2.5229    2.9540 H   0  0  0  0  0  0  0  0  0  0  0  0
    2.2532    1.0446    3.7815 O   0  0  0  0  0  0  0  0  0  0  0  0
    2.3205    0.1420    4.1564 H   0  0  0  0  0  0  0  0  0  0  0  0
    3.0938    1.2251    3.3534 H   0  0  0  0  0  0  0  0  0  0  0  0
    0.6090    2.8750    4.9969 O   0  0  0  0  0  0  0  0  0  0  0  0
    1.3030    2.2886    4.6359 H   0  0  0  0  0  0  0  0  0  0  0  0
    0.5266    3.6130    4.3855 H   0  0  0  0  0  0  0  0  0  0  0  0
   -0.3979   -1.5428    5.4075 O   0  0  0  0  0  0  0  0  0  0  0  0
    0.5581   -1.5062    5.2137 H   0  0  0  0  0  0  0  0  0  0  0  0
   -0.7137   -0.6153    5.3677 H   0  0  0  0  0  0  0  0  0  0  0  0
   -1.3709    1.0031    5.1014 O   0  0  0  0  0  0  0  0  0  0  0  0
   -2.0191    1.2730    5.7551 H   0  0  0  0  0  0  0  0  0  0  0  0
   -0.6612    1.6775    5.1236 H   0  0  0  0  0  0  0  0  0  0  0  0
  1  2  1  0  0  0  0
  2  3  1  0  0  0  0
  3  4  1  0  0  0  0
  4  5  1  0  0  0  0
  5  6  2  0  0  0  0
  5  7  4  0  0  0  0
  1  8  1  0  0  0  0
  1  9  1  0  0  0  0
  2 10  1  0  0  0  0
  2 11  1  0  0  0  0
  3 12  1  0  0  0  0
  3 13  1  0  0  0  0
  4 14  1  0  0  0  0
  4 15  1  0  0  0  0
  1 16  1  0  0  0  0
 17 18  1  0  0  0  0
 17 19  1  0  0  0  0
 20 21  1  0  0  0  0
 20 22  1  0  0  0  0
 23 24  1  0  0  0  0
 23 25  1  0  0  0  0
 26 27  1  0  0  0  0
 26 28  1  0  0  0  0
 29 30  1  0  0  0  0
 29 31  1  0  0  0  0
 32 33  1  0  0  0  0
 32 34  1  0  0  0  0
 35 36  1  0  0  0  0
 35 37  1  0  0  0  0
M  END
