 xtb: 6.7.1 (edcfbbe)
          06092517573D

 34 26  0     0  0            999 V2000
    1.5338   -1.3167   -1.1789 H   0  0  0  0  0  0  0  0  0  0  0  0
    0.5131   -1.3071   -0.7963 C   0  0  0  0  0  0  0  0  0  0  0  0
   -0.1989   -0.6846   -2.6879 H   0  0  0  0  0  0  0  0  0  0  0  0
    0.1348   -2.3291   -0.8075 H   0  0  0  0  0  0  0  0  0  0  0  0
   -0.3080   -0.4469   -1.6708 N   0  0  0  0  0  0  0  0  0  0  0  0
    1.1146   -1.3633    1.2858 H   0  0  0  0  0  0  0  0  0  0  0  0
    0.5081   -0.7483    0.6227 C   0  0  0  0  0  0  0  0  0  0  0  0
    0.9654    1.4289   -0.3016 O   0  0  0  0  0  0  0  0  0  0  0  0
    1.0519    0.7002    0.7258 C   0  0  0  0  0  0  0  0  0  0  0  0
    0.0503    0.5160   -1.4708 H   0  0  0  0  0  0  0  0  0  0  0  0
    1.5123    1.0678    1.8170 O   0  0  0  0  0  0  0  0  0  0  0  0
   -1.2937   -0.5016   -1.4130 H   0  0  0  0  0  0  0  0  0  0  0  0
   -0.5046   -0.7262    1.0338 H   0  0  0  0  0  0  0  0  0  0  0  0
    1.2140    1.4078   -4.6840 O   0  0  0  0  0  0  0  0  0  0  0  0
    1.8179    1.3360   -3.9164 H   0  0  0  0  0  0  0  0  0  0  0  0
    0.9305    2.3337   -4.6881 H   0  0  0  0  0  0  0  0  0  0  0  0
    2.7269    1.4214   -2.4090 O   0  0  0  0  0  0  0  0  0  0  0  0
    2.1632    1.4999   -1.6164 H   0  0  0  0  0  0  0  0  0  0  0  0
    3.0903    2.3131   -2.5672 H   0  0  0  0  0  0  0  0  0  0  0  0
   -0.1335   -0.8904   -4.3581 O   0  0  0  0  0  0  0  0  0  0  0  0
   -0.9045   -0.9139   -4.9312 H   0  0  0  0  0  0  0  0  0  0  0  0
    0.3751   -0.0850   -4.5979 H   0  0  0  0  0  0  0  0  0  0  0  0
    3.4710   -1.2603   -2.4265 O   0  0  0  0  0  0  0  0  0  0  0  0
    3.2813   -0.3059   -2.4798 H   0  0  0  0  0  0  0  0  0  0  0  0
    4.4203   -1.3518   -2.5392 H   0  0  0  0  0  0  0  0  0  0  0  0
    3.1670    4.0681   -3.0555 O   0  0  0  0  0  0  0  0  0  0  0  0
    2.3441    4.1578   -3.5682 H   0  0  0  0  0  0  0  0  0  0  0  0
    3.1577    4.7658   -2.3941 H   0  0  0  0  0  0  0  0  0  0  0  0
    1.4701   -3.0588   -3.4407 O   0  0  0  0  0  0  0  0  0  0  0  0
    2.2264   -2.5508   -3.1093 H   0  0  0  0  0  0  0  0  0  0  0  0
    0.9244   -2.4069   -3.9108 H   0  0  0  0  0  0  0  0  0  0  0  0
    0.6471    4.2245   -4.3869 O   0  0  0  0  0  0  0  0  0  0  0  0
   -0.0917    4.4332   -3.8048 H   0  0  0  0  0  0  0  0  0  0  0  0
    0.5484    4.7662   -5.1766 H   0  0  0  0  0  0  0  0  0  0  0  0
  1  2  1  0  0  0  0
  2  4  1  0  0  0  0
  2  5  1  0  0  0  0
  3  5  1  0  0  0  0
  2  7  1  0  0  0  0
  6  7  1  0  0  0  0
  7  9  1  0  0  0  0
  8  9  4  0  0  0  0
  5 10  1  0  0  0  0
  9 11  2  0  0  0  0
  5 12  1  0  0  0  0
  7 13  1  0  0  0  0
 14 15  1  0  0  0  0
 14 16  1  0  0  0  0
 17 18  1  0  0  0  0
 17 19  1  0  0  0  0
 20 21  1  0  0  0  0
 20 22  1  0  0  0  0
 23 24  1  0  0  0  0
 23 25  1  0  0  0  0
 26 27  1  0  0  0  0
 26 28  1  0  0  0  0
 29 30  1  0  0  0  0
 29 31  1  0  0  0  0
 32 33  1  0  0  0  0
 32 34  1  0  0  0  0
M  END
