46
Coordinates from ORCA-job input
  N          -1.47441546061099      0.26201698859435      0.45573988988513
  C          -2.65328389388952      1.01542446427208     -0.07538504888226
  C          -3.39715055690720      0.32857584068047     -1.21309861940945
  C          -2.65779581958866      0.22795251005727     -2.55110759692808
  C          -1.84031272867679     -1.03001022458045     -2.82439924564387
  O          -0.88968310739464     -0.92710552723699     -3.65204497485344
  O          -2.16853722342384     -2.11399089851922     -2.26630190070213
  H          -1.20651571389356      0.65369729186780      1.37728305139858
  H          -1.67918356253499     -0.74024653305568      0.58919494771798
  H          -3.33118413123163      1.15499253878638      0.76540721883795
  H          -2.28620417599476      1.99508358704590     -0.38095387588622
  H          -4.29819607273184      0.92673576443731     -1.36516099449302
  H          -3.73943598319340     -0.65473416911973     -0.89008997487468
  H          -2.02052964905551      1.09824639765662     -2.71260470948525
  H          -3.39766807836799      0.24592555961375     -3.35865024637631
  H          -0.63521307313025      0.34475246565519     -0.14916520949979
  O           0.31374984273639     -4.30687728857759      1.18632499037348
  H           0.00152830415281     -5.18664556638136      1.43110652743489
  H          -0.49513375259322     -3.77444235994581      1.02112573148734
  O          -1.76848711729881     -2.65381335885893      0.44039052117229
  H          -1.61996905184593     -2.53604411028284     -0.51909530013377
  H          -2.68862644839227     -2.97635424172995      0.45819789045621
  O           1.28025345864908     -4.22077836292710     -1.44692788154917
  H           0.98094651921888     -4.29480805587659     -0.51649346636968
  H           0.48744433015095     -4.41093557139831     -1.99859173947141
  O          -0.86765029834388      1.49420201324332      2.95810460323327
  H           0.05797926793227      1.76105554990962      3.03589112991997
  H          -1.03270365012618      0.93179732245800      3.72647675901619
  O          -0.94596470305420     -4.47108995071927     -3.08117310657979
  H          -0.61331500213669     -4.20187542126910     -3.95997552480847
  H          -1.42603065159491     -3.66612011000447     -2.78301684674292
  O           1.52456023165221     -1.63321024595189     -2.32999625921604
  H           1.47616057413265     -2.54177377671735     -1.94818044062806
  H           0.71915168744452     -1.53520915081123     -2.87267637899763
  O           0.96524811268862      0.60469439635871     -0.96946143410379
  H           1.27264857129522     -0.26054320215251     -1.34786370730792
  H           1.66054999173960      0.91149081913118     -0.37453829426318
  O          -0.23318651616867     -2.99981512034912     -5.38367152594524
  H          -0.45543186164954     -2.23238354414950     -4.81030945614050
  H           0.71209139046875     -2.91946623688907     -5.56109408464351
  O          -4.28942417698071     -3.21413363056266     -0.77669435176559
  H          -3.71205004823395     -2.82980010903579     -1.46576129836611
  H          -4.46104674761574     -4.12032477084563     -1.06094139333343
  O           0.47830614363155      1.55007734691944     -3.66013115597581
  H           0.73901259740207      1.45461031903084     -2.72774504753984
  H          -0.04600991961898      0.74047105722605     -3.81577944289084
