46
Coordinates from ORCA-job input
  N          -1.47321928553562      0.26420330988276      0.45940434691397
  C          -2.65278608470087      1.01561238672130     -0.07269811685368
  C          -3.39534643682794      0.32853640346682     -1.21125709471723
  C          -2.65502848577936      0.22931143793558     -2.54897011641529
  C          -1.84012192055717     -1.02954952981877     -2.82435229388191
  O          -0.89091881609614     -0.92828965048956     -3.65412356866627
  O          -2.16801853350849     -2.11338341910899     -2.26562115282399
  H          -1.20386005201228      0.66007256894658      1.37894042820748
  H          -1.67853901652013     -0.73719124581350      0.59774997529905
  H          -3.33118454739434      1.15504620322210      0.76773001894405
  H          -2.28715683856382      1.99594511874976     -0.37798762843325
  H          -4.29656594167952      0.92637799952290     -1.36356625270577
  H          -3.73814682466218     -0.65491610047787     -0.88920346971884
  H          -2.01648213968842      1.09897300640120     -2.70851822616596
  H          -3.39470276964413      0.25099025941493     -3.35664872903589
  H          -0.63475743166225      0.34503304814102     -0.14652508198132
  O           0.31063240777222     -4.29830531930379      1.18946263403184
  H          -0.00663652788391     -5.18318934309310      1.40823408475720
  H          -0.49519791669103     -3.76525061682575      1.00957408890774
  O          -1.77204202499331     -2.65134386030263      0.43708346816160
  H          -1.62525726686419     -2.52533002982902     -0.52187462914550
  H          -2.69101973754557     -2.97681100530961      0.45517386169763
  O           1.28983560265653     -4.22239019003160     -1.44097310086254
  H           0.99008793767681     -4.29185540923454     -0.51019798178504
  H           0.49529962965758     -4.41156984726657     -1.99059240725044
  O          -0.86806882890274      1.49490029429955      2.96130445202404
  H           0.05778779929442      1.75824779120377      3.04780628093638
  H          -1.04281846134584      0.93414695215566      3.72875897430461
  O          -0.93705335270767     -4.47046594402489     -3.07354370686263
  H          -0.61160295874326     -4.20517820740416     -3.95633325125241
  H          -1.42110317693985     -3.66639314766237     -2.77976765813027
  O           1.52193256487409     -1.63654856044949     -2.33326286980922
  H           1.48131249369685     -2.54397856859185     -1.94766999377457
  H           0.71173931462821     -1.54578642331741     -2.87016877556999
  O           0.96565993131613      0.60271209498185     -0.97150177772199
  H           1.26647196040530     -0.26210141650647     -1.35609466453899
  H           1.66563084334034      0.90181565912451     -0.37813867102082
  O          -0.24075113457522     -3.00510488986097     -5.38328742353956
  H          -0.46537881454130     -2.23629328790660     -4.81253681964384
  H           0.70307497996424     -2.91899028612428     -5.56597789388631
  O          -4.29203881670258     -3.22041059206591     -0.78300033597000
  H          -3.71799887696300     -2.82444238157528     -1.46813236308349
  H          -4.44647893485136     -4.12829017881102     -1.07173750014916
  O           0.47676634177447      1.54826555988382     -3.66323087587672
  H           0.73893912831869      1.45563024409379     -2.73106291261128
  H          -0.04559713327610      0.73680980805416     -3.81650254317541
