 xtb: 6.7.1 (edcfbbe)
          06092518063D

 37 29  0     0  0            999 V2000
   -0.2773    0.0564    0.1022 N   0  0  0  0  0  0  0  0  0  0  0  0
    0.8268    0.8460   -0.4753 C   0  0  0  0  0  0  0  0  0  0  0  0
    0.5454    1.1985   -1.9345 C   0  0  0  0  0  0  0  0  0  0  0  0
    0.1656   -0.0223   -2.7882 C   0  0  0  0  0  0  0  0  0  0  0  0
    1.1119   -1.1963   -2.5030 C   0  0  0  0  0  0  0  0  0  0  0  0
    2.1642   -1.2998   -3.1648 O   0  0  0  0  0  0  0  0  0  0  0  0
    0.7723   -1.9748   -1.5709 O   0  0  0  0  0  0  0  0  0  0  0  0
   -0.1058   -0.0807    1.1398 H   0  0  0  0  0  0  0  0  0  0  0  0
   -1.1691    0.5423   -0.0654 H   0  0  0  0  0  0  0  0  0  0  0  0
    0.9568    1.7596    0.1042 H   0  0  0  0  0  0  0  0  0  0  0  0
    1.7459    0.2616   -0.4037 H   0  0  0  0  0  0  0  0  0  0  0  0
    1.4412    1.6576   -2.3561 H   0  0  0  0  0  0  0  0  0  0  0  0
   -0.2720    1.9195   -1.9858 H   0  0  0  0  0  0  0  0  0  0  0  0
   -0.8533   -0.3450   -2.5716 H   0  0  0  0  0  0  0  0  0  0  0  0
    0.2394    0.2303   -3.8469 H   0  0  0  0  0  0  0  0  0  0  0  0
   -0.2689   -0.8672   -0.3593 H   0  0  0  0  0  0  0  0  0  0  0  0
    0.5064   -0.2217    2.6508 O   0  0  0  0  0  0  0  0  0  0  0  0
    1.0412   -1.0362    2.6711 H   0  0  0  0  0  0  0  0  0  0  0  0
    1.1647    0.5029    2.6607 H   0  0  0  0  0  0  0  0  0  0  0  0
    2.3564   -2.3064    2.4399 O   0  0  0  0  0  0  0  0  0  0  0  0
    3.2039   -2.4510    2.8694 H   0  0  0  0  0  0  0  0  0  0  0  0
    2.4716   -2.5684    1.5093 H   0  0  0  0  0  0  0  0  0  0  0  0
    2.5675    1.5919    2.3989 O   0  0  0  0  0  0  0  0  0  0  0  0
    3.2039    1.7514    3.1013 H   0  0  0  0  0  0  0  0  0  0  0  0
    3.0850    1.3323    1.6182 H   0  0  0  0  0  0  0  0  0  0  0  0
    4.1639    1.0245    0.1613 O   0  0  0  0  0  0  0  0  0  0  0  0
    4.7681    1.6810   -0.1950 H   0  0  0  0  0  0  0  0  0  0  0  0
    4.2698    0.2279   -0.3982 H   0  0  0  0  0  0  0  0  0  0  0  0
    2.7604   -3.0994   -0.1944 O   0  0  0  0  0  0  0  0  0  0  0  0
    2.8185   -4.0282   -0.4361 H   0  0  0  0  0  0  0  0  0  0  0  0
    2.0010   -2.7336   -0.7155 H   0  0  0  0  0  0  0  0  0  0  0  0
   -2.4521    1.9221   -0.6164 O   0  0  0  0  0  0  0  0  0  0  0  0
   -3.2669    1.8979   -1.1232 H   0  0  0  0  0  0  0  0  0  0  0  0
   -2.5017    2.6931   -0.0407 H   0  0  0  0  0  0  0  0  0  0  0  0
    4.3330   -1.1877   -1.4497 O   0  0  0  0  0  0  0  0  0  0  0  0
    3.7154   -1.1662   -2.2040 H   0  0  0  0  0  0  0  0  0  0  0  0
    3.9920   -1.9168   -0.8960 H   0  0  0  0  0  0  0  0  0  0  0  0
  1  2  1  0  0  0  0
  2  3  1  0  0  0  0
  3  4  1  0  0  0  0
  4  5  1  0  0  0  0
  5  6  2  0  0  0  0
  5  7  4  0  0  0  0
  1  8  1  0  0  0  0
  1  9  1  0  0  0  0
  2 10  1  0  0  0  0
  2 11  1  0  0  0  0
  3 12  1  0  0  0  0
  3 13  1  0  0  0  0
  4 14  1  0  0  0  0
  4 15  1  0  0  0  0
  1 16  1  0  0  0  0
 17 18  1  0  0  0  0
 17 19  1  0  0  0  0
 20 21  1  0  0  0  0
 20 22  1  0  0  0  0
 23 24  1  0  0  0  0
 23 25  1  0  0  0  0
 26 27  1  0  0  0  0
 26 28  1  0  0  0  0
 29 30  1  0  0  0  0
 29 31  1  0  0  0  0
 32 33  1  0  0  0  0
 32 34  1  0  0  0  0
 35 36  1  0  0  0  0
 35 37  1  0  0  0  0
M  END
