 xtb: 6.7.1 (edcfbbe)
          06092517593D

 34 26  0     0  0            999 V2000
    0.6368   -0.3861   -0.9388 H   0  0  0  0  0  0  0  0  0  0  0  0
   -0.0232   -0.8333   -0.1936 C   0  0  0  0  0  0  0  0  0  0  0  0
   -1.7140   -0.1330   -1.2090 H   0  0  0  0  0  0  0  0  0  0  0  0
   -0.1176   -1.9019   -0.3869 H   0  0  0  0  0  0  0  0  0  0  0  0
   -1.3468   -0.1817   -0.2595 N   0  0  0  0  0  0  0  0  0  0  0  0
    1.5240   -1.1062    1.2835 H   0  0  0  0  0  0  0  0  0  0  0  0
    0.5589   -0.6122    1.1948 C   0  0  0  0  0  0  0  0  0  0  0  0
    0.0163    1.7198    0.9783 O   0  0  0  0  0  0  0  0  0  0  0  0
    0.7360    0.8763    1.5592 C   0  0  0  0  0  0  0  0  0  0  0  0
   -1.1661    0.7770    0.1275 H   0  0  0  0  0  0  0  0  0  0  0  0
    1.5829    1.1498    2.4424 O   0  0  0  0  0  0  0  0  0  0  0  0
   -2.0132   -0.6965    0.3649 H   0  0  0  0  0  0  0  0  0  0  0  0
   -0.1007   -1.0332    1.9559 H   0  0  0  0  0  0  0  0  0  0  0  0
    1.5495   -3.2990    2.7978 O   0  0  0  0  0  0  0  0  0  0  0  0
    1.8133   -2.4669    3.2281 H   0  0  0  0  0  0  0  0  0  0  0  0
    1.9623   -4.0052    3.3030 H   0  0  0  0  0  0  0  0  0  0  0  0
    2.4081   -0.8740    3.9589 O   0  0  0  0  0  0  0  0  0  0  0  0
    2.0790   -0.1085    3.4227 H   0  0  0  0  0  0  0  0  0  0  0  0
    3.3414   -0.6976    4.1143 H   0  0  0  0  0  0  0  0  0  0  0  0
    0.7955   -1.5586    6.1153 O   0  0  0  0  0  0  0  0  0  0  0  0
    0.8045   -0.8045    6.7118 H   0  0  0  0  0  0  0  0  0  0  0  0
    1.3515   -1.3083    5.3531 H   0  0  0  0  0  0  0  0  0  0  0  0
   -1.2474   -3.4295    2.6306 O   0  0  0  0  0  0  0  0  0  0  0  0
   -1.4439   -3.1728    3.5579 H   0  0  0  0  0  0  0  0  0  0  0  0
   -0.2754   -3.4148    2.5695 H   0  0  0  0  0  0  0  0  0  0  0  0
   -2.3410   -0.0379    3.5836 O   0  0  0  0  0  0  0  0  0  0  0  0
   -3.0131    0.6285    3.7475 H   0  0  0  0  0  0  0  0  0  0  0  0
   -2.6432   -0.5574    2.8122 H   0  0  0  0  0  0  0  0  0  0  0  0
   -1.6787   -2.2979    5.0700 O   0  0  0  0  0  0  0  0  0  0  0  0
   -0.8184   -2.1410    5.5000 H   0  0  0  0  0  0  0  0  0  0  0  0
   -1.9301   -1.4378    4.6823 H   0  0  0  0  0  0  0  0  0  0  0  0
   -2.8698   -1.6957    1.4240 O   0  0  0  0  0  0  0  0  0  0  0  0
   -2.2539   -2.3728    1.7993 H   0  0  0  0  0  0  0  0  0  0  0  0
   -3.6823   -2.1626    1.2091 H   0  0  0  0  0  0  0  0  0  0  0  0
  1  2  1  0  0  0  0
  2  4  1  0  0  0  0
  2  5  1  0  0  0  0
  3  5  1  0  0  0  0
  2  7  1  0  0  0  0
  6  7  1  0  0  0  0
  7  9  1  0  0  0  0
  8  9  4  0  0  0  0
  5 10  1  0  0  0  0
  9 11  4  0  0  0  0
  5 12  1  0  0  0  0
  7 13  1  0  0  0  0
 14 15  1  0  0  0  0
 14 16  1  0  0  0  0
 17 18  1  0  0  0  0
 17 19  1  0  0  0  0
 20 21  1  0  0  0  0
 20 22  1  0  0  0  0
 23 24  1  0  0  0  0
 23 25  1  0  0  0  0
 26 27  1  0  0  0  0
 26 28  1  0  0  0  0
 29 30  1  0  0  0  0
 29 31  1  0  0  0  0
 32 33  1  0  0  0  0
 32 34  1  0  0  0  0
M  END
