          37
  Built with Packmol                                             
  N           -0.443767       -0.471812        1.745205
  C            0.693510        0.104360        1.026899
  C            0.252325        0.999585       -0.146245
  C           -0.573823        0.306802       -1.244857
  C            0.172762       -0.788129       -1.957711
  O            0.408222       -0.687945       -3.151027
  O            0.546344       -1.903284       -1.303739
  H           -0.087472       -1.004114        2.571270
  H           -1.081184        0.285863        2.081386
  H            1.280979        0.732860        1.731174
  H            1.368045       -0.703734        0.677139
  H            1.158667        1.443130       -0.611175
  H           -0.355788        1.834342        0.265274
  H           -1.517364       -0.100802       -0.829235
  H           -0.852734        1.086771       -1.985872
  H           -0.968720       -1.133893        1.131516
  O           -3.859945       -3.727254        1.321033
  H           -3.420992       -2.847810        1.200578
  H           -3.397587       -4.130954        2.098120
  O            0.292302       -2.512964        5.284253
  H           -0.105414       -2.018744        4.523872
  H            0.122805       -1.936001        6.071017
  O            2.746189       -2.238351        4.899427
  H            2.336576       -3.128734        4.757844
  H            2.355999       -1.918408        5.751485
  O           -1.864802       -2.789920        5.596792
  H           -1.622715       -3.561686        5.025494
  H           -2.719551       -2.460952        5.220232
  O            0.961492       -3.954369        2.637892
  H            1.399391       -4.512356        3.328909
  H            1.073211       -3.025272        2.961792
  O            0.554271       -3.113965        0.650380
  H            0.116227       -3.745340        0.025805
  H            1.486850       -3.048788        0.323791
  O           -1.373715       -2.750871        2.887270
  H           -2.310137       -2.478973        3.059884
  H           -1.405251       -3.204653        2.007668
