 xtb: 6.7.1 (edcfbbe)
          06102518433D

256175  0     0  0            999 V2000
   -1.0181   -0.3980    1.1400 N   0  0  0  0  0  0  0  0  0  0  0  0
   -1.7580    0.7738    0.6560 C   0  0  0  0  0  0  0  0  0  0  0  0
   -2.5541    0.4788   -0.6069 C   0  0  0  0  0  0  0  0  0  0  0  0
   -1.6810    0.0751   -1.7905 C   0  0  0  0  0  0  0  0  0  0  0  0
   -1.4884   -1.4189   -1.9939 C   0  0  0  0  0  0  0  0  0  0  0  0
   -0.4519   -1.7969   -2.5877 O   0  0  0  0  0  0  0  0  0  0  0  0
   -2.3809   -2.2237   -1.6104 O   0  0  0  0  0  0  0  0  0  0  0  0
   -0.7653   -0.2378    2.1559 H   0  0  0  0  0  0  0  0  0  0  0  0
   -1.5992   -1.2353    1.0871 H   0  0  0  0  0  0  0  0  0  0  0  0
   -2.4655    1.0879    1.4223 H   0  0  0  0  0  0  0  0  0  0  0  0
   -1.0586    1.5835    0.4582 H   0  0  0  0  0  0  0  0  0  0  0  0
   -3.1234    1.3699   -0.8678 H   0  0  0  0  0  0  0  0  0  0  0  0
   -3.2837   -0.3086   -0.4212 H   0  0  0  0  0  0  0  0  0  0  0  0
   -0.7121    0.5670   -1.7553 H   0  0  0  0  0  0  0  0  0  0  0  0
   -2.1718    0.3822   -2.7163 H   0  0  0  0  0  0  0  0  0  0  0  0
   -0.1237   -0.5639    0.6292 H   0  0  0  0  0  0  0  0  0  0  0  0
   -2.3774   -5.8834    2.6028 O   0  0  0  0  0  0  0  0  0  0  0  0
   -3.1597   -5.3889    2.9051 H   0  0  0  0  0  0  0  0  0  0  0  0
   -1.6081   -5.4365    3.0276 H   0  0  0  0  0  0  0  0  0  0  0  0
   -0.2907   -3.8787    0.0582 O   0  0  0  0  0  0  0  0  0  0  0  0
    0.2108   -4.7044   -0.0935 H   0  0  0  0  0  0  0  0  0  0  0  0
   -1.2236   -4.1323   -0.0231 H   0  0  0  0  0  0  0  0  0  0  0  0
   -2.1732   -4.2599   -7.4717 O   0  0  0  0  0  0  0  0  0  0  0  0
   -1.9594   -3.3222   -7.6752 H   0  0  0  0  0  0  0  0  0  0  0  0
   -1.3712   -4.6128   -7.0495 H   0  0  0  0  0  0  0  0  0  0  0  0
    2.2303    1.3784    1.8247 O   0  0  0  0  0  0  0  0  0  0  0  0
    2.9950    1.8851    1.5447 H   0  0  0  0  0  0  0  0  0  0  0  0
    1.5047    2.0130    2.0051 H   0  0  0  0  0  0  0  0  0  0  0  0
   -2.9156   -2.5368    1.3653 O   0  0  0  0  0  0  0  0  0  0  0  0
   -2.9342   -2.7320    0.4212 H   0  0  0  0  0  0  0  0  0  0  0  0
   -3.4662   -3.2185    1.7995 H   0  0  0  0  0  0  0  0  0  0  0  0
   -2.3873   -2.2586    7.1429 O   0  0  0  0  0  0  0  0  0  0  0  0
   -2.2103   -2.2194    8.0834 H   0  0  0  0  0  0  0  0  0  0  0  0
   -1.5787   -2.6459    6.7325 H   0  0  0  0  0  0  0  0  0  0  0  0
    0.4984   -0.0884   -8.5924 O   0  0  0  0  0  0  0  0  0  0  0  0
    1.1196   -0.3350   -7.8835 H   0  0  0  0  0  0  0  0  0  0  0  0
    0.0360    0.7076   -8.2508 H   0  0  0  0  0  0  0  0  0  0  0  0
    0.7662   -1.8524    8.4144 O   0  0  0  0  0  0  0  0  0  0  0  0
    0.5766   -2.4779    7.6885 H   0  0  0  0  0  0  0  0  0  0  0  0
    1.0979   -2.3782    9.1431 H   0  0  0  0  0  0  0  0  0  0  0  0
   -0.0935    2.9594   -0.9736 O   0  0  0  0  0  0  0  0  0  0  0  0
    0.8063    2.5886   -0.9827 H   0  0  0  0  0  0  0  0  0  0  0  0
   -0.2220    3.3186   -1.8626 H   0  0  0  0  0  0  0  0  0  0  0  0
   -2.6742    0.2875    6.0512 O   0  0  0  0  0  0  0  0  0  0  0  0
   -3.4316    0.3461    5.4342 H   0  0  0  0  0  0  0  0  0  0  0  0
   -2.7190   -0.6092    6.4296 H   0  0  0  0  0  0  0  0  0  0  0  0
    4.2185   -1.0677   -4.9413 O   0  0  0  0  0  0  0  0  0  0  0  0
    4.0702   -1.2946   -4.0055 H   0  0  0  0  0  0  0  0  0  0  0  0
    4.4530   -0.1231   -4.9426 H   0  0  0  0  0  0  0  0  0  0  0  0
   -0.1814    6.4338   -1.9441 O   0  0  0  0  0  0  0  0  0  0  0  0
   -0.5795    6.0966   -1.1172 H   0  0  0  0  0  0  0  0  0  0  0  0
    0.7770    6.4381   -1.7331 H   0  0  0  0  0  0  0  0  0  0  0  0
    3.6818   -0.8720    5.5277 O   0  0  0  0  0  0  0  0  0  0  0  0
    2.7817   -1.1643    5.2174 H   0  0  0  0  0  0  0  0  0  0  0  0
    3.8557   -0.0461    5.0276 H   0  0  0  0  0  0  0  0  0  0  0  0
    5.8689    0.8840   -2.4036 O   0  0  0  0  0  0  0  0  0  0  0  0
    5.3253    1.2645   -3.1289 H   0  0  0  0  0  0  0  0  0  0  0  0
    6.7701    0.8508   -2.7261 H   0  0  0  0  0  0  0  0  0  0  0  0
   -1.5313   -1.6294   -7.5211 O   0  0  0  0  0  0  0  0  0  0  0  0
   -1.1069   -1.7160   -6.6431 H   0  0  0  0  0  0  0  0  0  0  0  0
   -0.8745   -1.1557   -8.0660 H   0  0  0  0  0  0  0  0  0  0  0  0
    1.2061    6.8264    1.6398 O   0  0  0  0  0  0  0  0  0  0  0  0
    0.5841    6.1941    1.2097 H   0  0  0  0  0  0  0  0  0  0  0  0
    0.6739    7.5750    1.9090 H   0  0  0  0  0  0  0  0  0  0  0  0
    1.9292   -0.9479   -6.3495 O   0  0  0  0  0  0  0  0  0  0  0  0
    2.7505   -1.1227   -5.8348 H   0  0  0  0  0  0  0  0  0  0  0  0
    1.2005   -1.4173   -5.8841 H   0  0  0  0  0  0  0  0  0  0  0  0
   -2.4059    5.0881    2.6198 O   0  0  0  0  0  0  0  0  0  0  0  0
   -1.8308    5.2021    3.4165 H   0  0  0  0  0  0  0  0  0  0  0  0
   -3.1137    5.7274    2.7012 H   0  0  0  0  0  0  0  0  0  0  0  0
    1.2599   -1.6073    4.7844 O   0  0  0  0  0  0  0  0  0  0  0  0
    0.9725   -1.6695    3.8576 H   0  0  0  0  0  0  0  0  0  0  0  0
    0.7589   -0.8604    5.1888 H   0  0  0  0  0  0  0  0  0  0  0  0
    4.7939    1.5507    0.0700 O   0  0  0  0  0  0  0  0  0  0  0  0
    5.3545    1.3693   -0.6986 H   0  0  0  0  0  0  0  0  0  0  0  0
    5.0419    0.9147    0.7559 H   0  0  0  0  0  0  0  0  0  0  0  0
    2.6355   -3.7596   -6.6515 O   0  0  0  0  0  0  0  0  0  0  0  0
    3.6044   -3.7878   -6.4988 H   0  0  0  0  0  0  0  0  0  0  0  0
    2.4400   -2.8746   -6.9927 H   0  0  0  0  0  0  0  0  0  0  0  0
    2.3040   -3.4453   -3.9342 O   0  0  0  0  0  0  0  0  0  0  0  0
    3.2081   -3.6975   -3.6570 H   0  0  0  0  0  0  0  0  0  0  0  0
    2.3050   -3.5091   -4.9059 H   0  0  0  0  0  0  0  0  0  0  0  0
   -1.5685    2.8603    6.2432 O   0  0  0  0  0  0  0  0  0  0  0  0
   -2.0635    2.0460    6.4253 H   0  0  0  0  0  0  0  0  0  0  0  0
   -0.6945    2.7411    6.6653 H   0  0  0  0  0  0  0  0  0  0  0  0
   -3.5160    1.8409   -6.3415 O   0  0  0  0  0  0  0  0  0  0  0  0
   -2.7433    1.8649   -6.9320 H   0  0  0  0  0  0  0  0  0  0  0  0
   -3.2284    2.3255   -5.5487 H   0  0  0  0  0  0  0  0  0  0  0  0
    0.9861    2.7503    7.3521 O   0  0  0  0  0  0  0  0  0  0  0  0
    1.5696    1.9813    7.4885 H   0  0  0  0  0  0  0  0  0  0  0  0
    1.4201    3.3226    6.7024 H   0  0  0  0  0  0  0  0  0  0  0  0
    2.5309    2.0146   -1.2869 O   0  0  0  0  0  0  0  0  0  0  0  0
    2.2730    1.2302   -1.8034 H   0  0  0  0  0  0  0  0  0  0  0  0
    3.3519    1.7667   -0.8141 H   0  0  0  0  0  0  0  0  0  0  0  0
    4.8303   -3.8905   -2.9597 O   0  0  0  0  0  0  0  0  0  0  0  0
    4.5674   -4.4039   -2.1763 H   0  0  0  0  0  0  0  0  0  0  0  0
    4.7731   -2.9542   -2.6593 H   0  0  0  0  0  0  0  0  0  0  0  0
    0.5824   -5.4089   -3.2972 O   0  0  0  0  0  0  0  0  0  0  0  0
    1.2197   -4.6660   -3.4491 H   0  0  0  0  0  0  0  0  0  0  0  0
   -0.2857   -4.9798   -3.1687 H   0  0  0  0  0  0  0  0  0  0  0  0
    3.0848    5.1940    2.8987 O   0  0  0  0  0  0  0  0  0  0  0  0
    2.5434    5.9613    2.6535 H   0  0  0  0  0  0  0  0  0  0  0  0
    3.0133    4.6326    2.0983 H   0  0  0  0  0  0  0  0  0  0  0  0
    0.0190    0.1246    6.3965 O   0  0  0  0  0  0  0  0  0  0  0  0
    0.0433   -0.3579    7.2245 H   0  0  0  0  0  0  0  0  0  0  0  0
   -0.9180    0.2252    6.1479 H   0  0  0  0  0  0  0  0  0  0  0  0
   -0.0205    4.2444   -3.4974 O   0  0  0  0  0  0  0  0  0  0  0  0
    0.9514    4.0901   -3.3756 H   0  0  0  0  0  0  0  0  0  0  0  0
   -0.1741    5.1181   -3.0755 H   0  0  0  0  0  0  0  0  0  0  0  0
    1.8960   -2.8409   -1.2816 O   0  0  0  0  0  0  0  0  0  0  0  0
    1.0340   -3.0538   -0.8938 H   0  0  0  0  0  0  0  0  0  0  0  0
    1.8030   -2.9697   -2.2343 H   0  0  0  0  0  0  0  0  0  0  0  0
    0.1575   -4.9015   -5.9946 O   0  0  0  0  0  0  0  0  0  0  0  0
    0.2912   -5.3325   -5.1274 H   0  0  0  0  0  0  0  0  0  0  0  0
    1.0421   -4.7476   -6.3631 H   0  0  0  0  0  0  0  0  0  0  0  0
   -6.0853   -1.6183   -0.1056 O   0  0  0  0  0  0  0  0  0  0  0  0
   -5.7718   -1.4277   -1.0024 H   0  0  0  0  0  0  0  0  0  0  0  0
   -5.8799   -2.5625    0.0378 H   0  0  0  0  0  0  0  0  0  0  0  0
   -0.7161    0.0974    3.6931 O   0  0  0  0  0  0  0  0  0  0  0  0
   -1.1813   -0.7009    4.0083 H   0  0  0  0  0  0  0  0  0  0  0  0
   -1.3533    0.8225    3.7398 H   0  0  0  0  0  0  0  0  0  0  0  0
   -0.8630    0.7978   -4.8499 O   0  0  0  0  0  0  0  0  0  0  0  0
    0.0739    1.0599   -4.7018 H   0  0  0  0  0  0  0  0  0  0  0  0
   -1.3960    1.5088   -4.4641 H   0  0  0  0  0  0  0  0  0  0  0  0
   -4.5266   -0.3668    1.8328 O   0  0  0  0  0  0  0  0  0  0  0  0
   -5.2480   -0.6132    1.2368 H   0  0  0  0  0  0  0  0  0  0  0  0
   -3.8932   -1.1143    1.7585 H   0  0  0  0  0  0  0  0  0  0  0  0
    1.2307   -6.0442   -0.6566 O   0  0  0  0  0  0  0  0  0  0  0  0
    0.9424   -6.0304   -1.5878 H   0  0  0  0  0  0  0  0  0  0  0  0
    2.1504   -5.6902   -0.6862 H   0  0  0  0  0  0  0  0  0  0  0  0
   -1.9406   -4.3866   -3.1224 O   0  0  0  0  0  0  0  0  0  0  0  0
   -2.4702   -4.1169   -3.9026 H   0  0  0  0  0  0  0  0  0  0  0  0
   -2.0595   -3.6460   -2.4783 H   0  0  0  0  0  0  0  0  0  0  0  0
   -1.9589   -2.2651    3.9805 O   0  0  0  0  0  0  0  0  0  0  0  0
   -1.4643   -3.0566    4.2166 H   0  0  0  0  0  0  0  0  0  0  0  0
   -2.1590   -2.3512    3.0351 H   0  0  0  0  0  0  0  0  0  0  0  0
    1.4054    1.5549    4.5382 O   0  0  0  0  0  0  0  0  0  0  0  0
    1.1701    1.2551    5.4288 H   0  0  0  0  0  0  0  0  0  0  0  0
    0.7566    1.0985    3.9660 H   0  0  0  0  0  0  0  0  0  0  0  0
    4.2756   -1.3550   -2.1737 O   0  0  0  0  0  0  0  0  0  0  0  0
    4.0970   -1.5717   -1.2231 H   0  0  0  0  0  0  0  0  0  0  0  0
    4.8968   -0.6054   -2.1633 H   0  0  0  0  0  0  0  0  0  0  0  0
    1.5217    4.1652    4.8572 O   0  0  0  0  0  0  0  0  0  0  0  0
    1.4537    3.1903    4.6572 H   0  0  0  0  0  0  0  0  0  0  0  0
    2.1856    4.5290    4.2388 H   0  0  0  0  0  0  0  0  0  0  0  0
   -2.3934    2.9417   -3.9221 O   0  0  0  0  0  0  0  0  0  0  0  0
   -3.0236    3.2962   -3.2919 H   0  0  0  0  0  0  0  0  0  0  0  0
   -1.5793    3.4757   -3.8278 H   0  0  0  0  0  0  0  0  0  0  0  0
   -0.2157   -4.6950    3.7460 O   0  0  0  0  0  0  0  0  0  0  0  0
    0.4139   -5.3556    3.4180 H   0  0  0  0  0  0  0  0  0  0  0  0
    0.0538   -3.8764    3.2252 H   0  0  0  0  0  0  0  0  0  0  0  0
    2.4010    6.1060   -1.1058 O   0  0  0  0  0  0  0  0  0  0  0  0
    2.2873    5.3968   -0.4107 H   0  0  0  0  0  0  0  0  0  0  0  0
    2.7323    6.8688   -0.6314 H   0  0  0  0  0  0  0  0  0  0  0  0
    1.7615   -0.2859   -2.5007 O   0  0  0  0  0  0  0  0  0  0  0  0
    2.5503   -0.8651   -2.4529 H   0  0  0  0  0  0  0  0  0  0  0  0
    0.9786   -0.8714   -2.5969 H   0  0  0  0  0  0  0  0  0  0  0  0
   -2.0168    2.4694    3.5430 O   0  0  0  0  0  0  0  0  0  0  0  0
   -1.8423    2.6750    4.4826 H   0  0  0  0  0  0  0  0  0  0  0  0
   -2.5110    3.2156    3.1871 H   0  0  0  0  0  0  0  0  0  0  0  0
   -3.2644   -0.6301   -5.0144 O   0  0  0  0  0  0  0  0  0  0  0  0
   -3.5833    0.0686   -5.6125 H   0  0  0  0  0  0  0  0  0  0  0  0
   -2.3060   -0.4653   -4.9768 H   0  0  0  0  0  0  0  0  0  0  0  0
    2.2653    4.0792    0.5787 O   0  0  0  0  0  0  0  0  0  0  0  0
    2.4175    3.3430   -0.0338 H   0  0  0  0  0  0  0  0  0  0  0  0
    1.3830    3.9171    0.9624 H   0  0  0  0  0  0  0  0  0  0  0  0
   -0.0697   -3.3573    6.2074 O   0  0  0  0  0  0  0  0  0  0  0  0
   -0.1301   -4.1400    5.6427 H   0  0  0  0  0  0  0  0  0  0  0  0
    0.4535   -2.7094    5.6486 H   0  0  0  0  0  0  0  0  0  0  0  0
    1.4844   -0.5442    0.2411 O   0  0  0  0  0  0  0  0  0  0  0  0
    1.5396   -0.2932   -0.6926 H   0  0  0  0  0  0  0  0  0  0  0  0
    1.7623    0.2275    0.8022 H   0  0  0  0  0  0  0  0  0  0  0  0
    0.6736    3.9453   -6.2188 O   0  0  0  0  0  0  0  0  0  0  0  0
    1.6346    3.8337   -6.1157 H   0  0  0  0  0  0  0  0  0  0  0  0
    0.3359    4.0683   -5.3111 H   0  0  0  0  0  0  0  0  0  0  0  0
   -0.6489    5.2076    0.4508 O   0  0  0  0  0  0  0  0  0  0  0  0
   -1.3107    5.0624    1.1471 H   0  0  0  0  0  0  0  0  0  0  0  0
   -0.4663    4.3215    0.0572 H   0  0  0  0  0  0  0  0  0  0  0  0
   -0.1451   -2.2561   -5.2382 O   0  0  0  0  0  0  0  0  0  0  0  0
   -0.2949   -2.1741   -4.2781 H   0  0  0  0  0  0  0  0  0  0  0  0
   -0.1236   -3.2113   -5.4390 H   0  0  0  0  0  0  0  0  0  0  0  0
   -3.4216   -3.4563   -5.1784 O   0  0  0  0  0  0  0  0  0  0  0  0
   -3.3789   -2.4856   -5.2355 H   0  0  0  0  0  0  0  0  0  0  0  0
   -3.0861   -3.7860   -6.0394 H   0  0  0  0  0  0  0  0  0  0  0  0
    5.0925   -2.4806    3.9540 O   0  0  0  0  0  0  0  0  0  0  0  0
    4.5750   -1.9374    4.6082 H   0  0  0  0  0  0  0  0  0  0  0  0
    5.7734   -2.9308    4.4537 H   0  0  0  0  0  0  0  0  0  0  0  0
    2.5738    0.4062    7.7163 O   0  0  0  0  0  0  0  0  0  0  0  0
    1.9886   -0.2804    8.0653 H   0  0  0  0  0  0  0  0  0  0  0  0
    3.0529   -0.0355    6.9820 H   0  0  0  0  0  0  0  0  0  0  0  0
    0.2845    3.2031    2.2844 O   0  0  0  0  0  0  0  0  0  0  0  0
    0.5719    3.8132    2.9723 H   0  0  0  0  0  0  0  0  0  0  0  0
   -0.5552    2.8291    2.6176 H   0  0  0  0  0  0  0  0  0  0  0  0
    2.5940    4.0722   -2.9850 O   0  0  0  0  0  0  0  0  0  0  0  0
    2.6593    3.2780   -2.3980 H   0  0  0  0  0  0  0  0  0  0  0  0
    2.6880    4.8424   -2.4028 H   0  0  0  0  0  0  0  0  0  0  0  0
    3.9879    1.3793    4.0623 O   0  0  0  0  0  0  0  0  0  0  0  0
    4.3140    2.2333    4.3453 H   0  0  0  0  0  0  0  0  0  0  0  0
    2.9926    1.4420    4.0563 H   0  0  0  0  0  0  0  0  0  0  0  0
   -4.7412   -1.3088   -2.5687 O   0  0  0  0  0  0  0  0  0  0  0  0
   -3.9198   -1.6992   -2.1989 H   0  0  0  0  0  0  0  0  0  0  0  0
   -4.4983   -1.0367   -3.4637 H   0  0  0  0  0  0  0  0  0  0  0  0
   -0.9541    5.2293    4.8729 O   0  0  0  0  0  0  0  0  0  0  0  0
   -1.3695    4.6056    5.4878 H   0  0  0  0  0  0  0  0  0  0  0  0
   -0.0120    4.9418    4.8661 H   0  0  0  0  0  0  0  0  0  0  0  0
    5.1650   -0.2487    2.2274 O   0  0  0  0  0  0  0  0  0  0  0  0
    4.6816    0.3611    2.8240 H   0  0  0  0  0  0  0  0  0  0  0  0
    5.3270   -1.0394    2.7666 H   0  0  0  0  0  0  0  0  0  0  0  0
    5.1888   -3.4880   -5.7473 O   0  0  0  0  0  0  0  0  0  0  0  0
    5.2355   -3.8809   -4.8613 H   0  0  0  0  0  0  0  0  0  0  0  0
    5.0006   -2.5426   -5.5726 H   0  0  0  0  0  0  0  0  0  0  0  0
    4.4113    1.6663   -4.5419 O   0  0  0  0  0  0  0  0  0  0  0  0
    4.5509    2.4446   -5.0892 H   0  0  0  0  0  0  0  0  0  0  0  0
    3.4210    1.5917   -4.4968 H   0  0  0  0  0  0  0  0  0  0  0  0
   -5.4354   -4.3124    0.2554 O   0  0  0  0  0  0  0  0  0  0  0  0
   -5.9062   -4.8814   -0.3550 H   0  0  0  0  0  0  0  0  0  0  0  0
   -4.4791   -4.5375    0.1534 H   0  0  0  0  0  0  0  0  0  0  0  0
    1.7965    1.2074   -4.6578 O   0  0  0  0  0  0  0  0  0  0  0  0
    1.8428    0.5863   -5.4085 H   0  0  0  0  0  0  0  0  0  0  0  0
    1.7803    0.6253   -3.8528 H   0  0  0  0  0  0  0  0  0  0  0  0
    3.2716   -3.6428    2.1191 O   0  0  0  0  0  0  0  0  0  0  0  0
    3.4524   -2.9602    1.4139 H   0  0  0  0  0  0  0  0  0  0  0  0
    3.8530   -3.3853    2.8490 H   0  0  0  0  0  0  0  0  0  0  0  0
   -4.8737    0.1103    4.4733 O   0  0  0  0  0  0  0  0  0  0  0  0
   -4.7685    0.0827    3.4987 H   0  0  0  0  0  0  0  0  0  0  0  0
   -4.9199   -0.8334    4.7223 H   0  0  0  0  0  0  0  0  0  0  0  0
   -0.8303    1.8922   -7.2835 O   0  0  0  0  0  0  0  0  0  0  0  0
   -0.8486    1.3650   -6.4428 H   0  0  0  0  0  0  0  0  0  0  0  0
   -0.3081    2.6841   -7.0470 H   0  0  0  0  0  0  0  0  0  0  0  0
   -4.4822   -4.1627    2.9207 O   0  0  0  0  0  0  0  0  0  0  0  0
   -5.2625   -4.1776    2.3586 H   0  0  0  0  0  0  0  0  0  0  0  0
   -4.6649   -3.6050    3.7026 H   0  0  0  0  0  0  0  0  0  0  0  0
    3.7954   -1.7299    0.4070 O   0  0  0  0  0  0  0  0  0  0  0  0
    4.2750   -1.1259    1.0047 H   0  0  0  0  0  0  0  0  0  0  0  0
    2.8596   -1.3733    0.3568 H   0  0  0  0  0  0  0  0  0  0  0  0
   -2.6400   -6.7648   -2.0872 O   0  0  0  0  0  0  0  0  0  0  0  0
   -2.3743   -5.9265   -2.5321 H   0  0  0  0  0  0  0  0  0  0  0  0
   -3.1054   -7.2793   -2.7491 H   0  0  0  0  0  0  0  0  0  0  0  0
    3.4383    4.1369   -5.5410 O   0  0  0  0  0  0  0  0  0  0  0  0
    3.6443    5.0527   -5.7360 H   0  0  0  0  0  0  0  0  0  0  0  0
    3.1511    4.1139   -4.5980 H   0  0  0  0  0  0  0  0  0  0  0  0
   -2.8246   -5.0484    0.0991 O   0  0  0  0  0  0  0  0  0  0  0  0
   -2.6238   -5.4477    0.9824 H   0  0  0  0  0  0  0  0  0  0  0  0
   -2.7632   -5.7646   -0.5471 H   0  0  0  0  0  0  0  0  0  0  0  0
    3.5872   -4.7216   -0.6399 O   0  0  0  0  0  0  0  0  0  0  0  0
    3.8334   -4.6036    0.2843 H   0  0  0  0  0  0  0  0  0  0  0  0
    2.9877   -3.9365   -0.8419 H   0  0  0  0  0  0  0  0  0  0  0  0
    0.6538   -2.6748    2.3013 O   0  0  0  0  0  0  0  0  0  0  0  0
    0.2582   -2.9683    1.4598 H   0  0  0  0  0  0  0  0  0  0  0  0
    1.5823   -2.9612    2.2487 H   0  0  0  0  0  0  0  0  0  0  0  0
    1.7078   -5.9769    2.2426 O   0  0  0  0  0  0  0  0  0  0  0  0
    2.2943   -5.1995    2.1701 H   0  0  0  0  0  0  0  0  0  0  0  0
    1.4461   -6.1885    1.3373 H   0  0  0  0  0  0  0  0  0  0  0  0
   -4.3524   -2.5114    5.0723 O   0  0  0  0  0  0  0  0  0  0  0  0
   -4.1646   -2.7127    5.9938 H   0  0  0  0  0  0  0  0  0  0  0  0
   -3.4467   -2.3425    4.6796 H   0  0  0  0  0  0  0  0  0  0  0  0
  1  2  1  0  0  0  0
  2  3  1  0  0  0  0
  3  4  1  0  0  0  0
  4  5  1  0  0  0  0
  5  6  4  0  0  0  0
  5  7  4  0  0  0  0
  1  8  1  0  0  0  0
  1  9  1  0  0  0  0
  2 10  1  0  0  0  0
  2 11  1  0  0  0  0
  3 12  1  0  0  0  0
  3 13  1  0  0  0  0
  4 14  1  0  0  0  0
  4 15  1  0  0  0  0
  1 16  1  0  0  0  0
 17 18  1  0  0  0  0
 17 19  1  0  0  0  0
 20 21  1  0  0  0  0
 20 22  1  0  0  0  0
 23 24  1  0  0  0  0
 23 25  1  0  0  0  0
 26 27  1  0  0  0  0
 26 28  1  0  0  0  0
 29 30  1  0  0  0  0
 29 31  1  0  0  0  0
 32 33  1  0  0  0  0
 32 34  1  0  0  0  0
 35 36  1  0  0  0  0
 35 37  1  0  0  0  0
 38 39  1  0  0  0  0
 38 40  1  0  0  0  0
 41 42  1  0  0  0  0
 41 43  1  0  0  0  0
 44 45  1  0  0  0  0
 44 46  1  0  0  0  0
 47 48  1  0  0  0  0
 47 49  1  0  0  0  0
 50 51  1  0  0  0  0
 50 52  1  0  0  0  0
 53 54  1  0  0  0  0
 53 55  1  0  0  0  0
 56 57  1  0  0  0  0
 56 58  1  0  0  0  0
 59 60  1  0  0  0  0
 59 61  1  0  0  0  0
 62 63  1  0  0  0  0
 62 64  1  0  0  0  0
 65 66  1  0  0  0  0
 65 67  1  0  0  0  0
 68 69  1  0  0  0  0
 68 70  1  0  0  0  0
 71 72  1  0  0  0  0
 71 73  1  0  0  0  0
 74 75  1  0  0  0  0
 74 76  1  0  0  0  0
 77 78  1  0  0  0  0
 77 79  1  0  0  0  0
 80 81  1  0  0  0  0
 80 82  1  0  0  0  0
 83 84  1  0  0  0  0
 83 85  1  0  0  0  0
 86 87  1  0  0  0  0
 86 88  1  0  0  0  0
 89 90  1  0  0  0  0
 89 91  1  0  0  0  0
 92 93  1  0  0  0  0
 92 94  1  0  0  0  0
 95 96  1  0  0  0  0
 95 97  1  0  0  0  0
 98 99  1  0  0  0  0
 98100  1  0  0  0  0
101102  1  0  0  0  0
101103  1  0  0  0  0
104105  1  0  0  0  0
104106  1  0  0  0  0
107108  1  0  0  0  0
107109  1  0  0  0  0
110111  1  0  0  0  0
110112  1  0  0  0  0
113114  1  0  0  0  0
113115  1  0  0  0  0
116117  1  0  0  0  0
116118  1  0  0  0  0
119120  1  0  0  0  0
119121  1  0  0  0  0
122123  1  0  0  0  0
122124  1  0  0  0  0
125126  1  0  0  0  0
125127  1  0  0  0  0
128129  1  0  0  0  0
128130  1  0  0  0  0
131132  1  0  0  0  0
131133  1  0  0  0  0
134135  1  0  0  0  0
134136  1  0  0  0  0
137138  1  0  0  0  0
137139  1  0  0  0  0
140141  1  0  0  0  0
140142  1  0  0  0  0
143144  1  0  0  0  0
143145  1  0  0  0  0
146147  1  0  0  0  0
146148  1  0  0  0  0
149150  1  0  0  0  0
149151  1  0  0  0  0
152153  1  0  0  0  0
152154  1  0  0  0  0
155156  1  0  0  0  0
155157  1  0  0  0  0
158159  1  0  0  0  0
158160  1  0  0  0  0
161162  1  0  0  0  0
161163  1  0  0  0  0
164165  1  0  0  0  0
164166  1  0  0  0  0
167168  1  0  0  0  0
167169  1  0  0  0  0
170171  1  0  0  0  0
170172  1  0  0  0  0
173174  1  0  0  0  0
173175  1  0  0  0  0
176177  1  0  0  0  0
176178  1  0  0  0  0
179180  1  0  0  0  0
179181  1  0  0  0  0
182183  1  0  0  0  0
182184  1  0  0  0  0
185186  1  0  0  0  0
185187  1  0  0  0  0
188189  1  0  0  0  0
188190  1  0  0  0  0
191192  1  0  0  0  0
191193  1  0  0  0  0
194195  1  0  0  0  0
194196  1  0  0  0  0
197198  1  0  0  0  0
197199  1  0  0  0  0
200201  1  0  0  0  0
200202  1  0  0  0  0
203204  1  0  0  0  0
203205  1  0  0  0  0
206207  1  0  0  0  0
206208  1  0  0  0  0
209210  1  0  0  0  0
209211  1  0  0  0  0
212213  1  0  0  0  0
212214  1  0  0  0  0
215216  1  0  0  0  0
215217  1  0  0  0  0
218219  1  0  0  0  0
218220  1  0  0  0  0
221222  1  0  0  0  0
221223  1  0  0  0  0
224225  1  0  0  0  0
224226  1  0  0  0  0
227228  1  0  0  0  0
227229  1  0  0  0  0
230231  1  0  0  0  0
230232  1  0  0  0  0
233234  1  0  0  0  0
233235  1  0  0  0  0
236237  1  0  0  0  0
236238  1  0  0  0  0
239240  1  0  0  0  0
239241  1  0  0  0  0
242243  1  0  0  0  0
242244  1  0  0  0  0
245246  1  0  0  0  0
245247  1  0  0  0  0
248249  1  0  0  0  0
248250  1  0  0  0  0
251252  1  0  0  0  0
251253  1  0  0  0  0
254255  1  0  0  0  0
254256  1  0  0  0  0
M  END
