 xtb: 6.7.1 (edcfbbe)
          06102522313D

 49 37  0     0  0            999 V2000
   -0.1100    0.1897    0.7515 N   0  0  0  0  0  0  0  0  0  0  0  0
    0.8943   -0.3849   -0.1573 C   0  0  0  0  0  0  0  0  0  0  0  0
    0.7891    0.2875   -1.5215 C   0  0  0  0  0  0  0  0  0  0  0  0
    1.9989   -0.0177   -2.4110 C   0  0  0  0  0  0  0  0  0  0  0  0
    2.1342    1.0575   -3.4815 C   0  0  0  0  0  0  0  0  0  0  0  0
    2.4406    2.2166   -3.1028 O   0  0  0  0  0  0  0  0  0  0  0  0
    1.9196    0.7622   -4.6830 O   0  0  0  0  0  0  0  0  0  0  0  0
    0.0817    1.2147    0.8558 H   0  0  0  0  0  0  0  0  0  0  0  0
   -1.0673    0.0552    0.3611 H   0  0  0  0  0  0  0  0  0  0  0  0
    0.7380   -1.4594   -0.2485 H   0  0  0  0  0  0  0  0  0  0  0  0
    1.8869   -0.2057    0.2585 H   0  0  0  0  0  0  0  0  0  0  0  0
    0.7374    1.3655   -1.3703 H   0  0  0  0  0  0  0  0  0  0  0  0
   -0.1225   -0.0233   -2.0310 H   0  0  0  0  0  0  0  0  0  0  0  0
    1.9160   -0.9968   -2.8816 H   0  0  0  0  0  0  0  0  0  0  0  0
    2.9116    0.0145   -1.8122 H   0  0  0  0  0  0  0  0  0  0  0  0
   -0.0585   -0.2606    1.6825 H   0  0  0  0  0  0  0  0  0  0  0  0
    0.1195   -1.0627    3.2457 O   0  0  0  0  0  0  0  0  0  0  0  0
    0.4630   -0.5402    3.9761 H   0  0  0  0  0  0  0  0  0  0  0  0
   -0.5936   -1.6119    3.5840 H   0  0  0  0  0  0  0  0  0  0  0  0
    1.9875    2.6661   -6.7156 O   0  0  0  0  0  0  0  0  0  0  0  0
    1.3178    2.3861   -7.3473 H   0  0  0  0  0  0  0  0  0  0  0  0
    2.0024    1.9826   -6.0168 H   0  0  0  0  0  0  0  0  0  0  0  0
    2.2054    4.5630   -4.5931 O   0  0  0  0  0  0  0  0  0  0  0  0
    2.1391    4.2752   -5.5144 H   0  0  0  0  0  0  0  0  0  0  0  0
    2.2924    3.7281   -4.0968 H   0  0  0  0  0  0  0  0  0  0  0  0
   -2.4866    0.2240   -3.0943 O   0  0  0  0  0  0  0  0  0  0  0  0
   -2.8115    1.0369   -3.4917 H   0  0  0  0  0  0  0  0  0  0  0  0
   -1.8748   -0.1651   -3.7423 H   0  0  0  0  0  0  0  0  0  0  0  0
    2.0917   -1.9712   -5.3579 O   0  0  0  0  0  0  0  0  0  0  0  0
    2.1581   -1.0145   -5.1938 H   0  0  0  0  0  0  0  0  0  0  0  0
    2.6635   -2.1592   -6.1076 H   0  0  0  0  0  0  0  0  0  0  0  0
    4.7815    3.8345   -2.5309 O   0  0  0  0  0  0  0  0  0  0  0  0
    4.6530    4.6771   -2.9779 H   0  0  0  0  0  0  0  0  0  0  0  0
    4.1022    3.2481   -2.8910 H   0  0  0  0  0  0  0  0  0  0  0  0
    0.4549    3.8832   -1.7873 O   0  0  0  0  0  0  0  0  0  0  0  0
    0.4398    4.7649   -2.1698 H   0  0  0  0  0  0  0  0  0  0  0  0
    1.1301    3.3968   -2.2811 H   0  0  0  0  0  0  0  0  0  0  0  0
   -0.5613   -0.6164   -4.9203 O   0  0  0  0  0  0  0  0  0  0  0  0
    0.2284   -0.0557   -4.8603 H   0  0  0  0  0  0  0  0  0  0  0  0
   -0.2230   -1.4982   -5.1163 H   0  0  0  0  0  0  0  0  0  0  0  0
    0.7140    2.8161    0.8263 O   0  0  0  0  0  0  0  0  0  0  0  0
    1.6634    2.6879    0.6482 H   0  0  0  0  0  0  0  0  0  0  0  0
    0.3935    3.3088    0.0549 H   0  0  0  0  0  0  0  0  0  0  0  0
   -2.6206   -0.2100   -0.3373 O   0  0  0  0  0  0  0  0  0  0  0  0
   -3.3439    0.3549   -0.0509 H   0  0  0  0  0  0  0  0  0  0  0  0
   -2.5890   -0.1493   -1.3065 H   0  0  0  0  0  0  0  0  0  0  0  0
    3.9804    3.0163   -0.3832 H   0  0  0  0  0  0  0  0  0  0  0  0
    3.2244    2.4230   -0.3336 O   0  0  0  0  0  0  0  0  0  0  0  0
    2.9204    2.3304   -1.2524 H   0  0  0  0  0  0  0  0  0  0  0  0
  1  2  1  0  0  0  0
  2  3  1  0  0  0  0
  3  4  1  0  0  0  0
  4  5  1  0  0  0  0
  5  6  4  0  0  0  0
  5  7  4  0  0  0  0
  1  8  1  0  0  0  0
  1  9  1  0  0  0  0
  2 10  1  0  0  0  0
  2 11  1  0  0  0  0
  3 12  1  0  0  0  0
  3 13  1  0  0  0  0
  4 14  1  0  0  0  0
  4 15  1  0  0  0  0
  1 16  1  0  0  0  0
 17 18  1  0  0  0  0
 17 19  1  0  0  0  0
 20 21  1  0  0  0  0
 20 22  1  0  0  0  0
 23 24  1  0  0  0  0
 23 25  1  0  0  0  0
 26 27  1  0  0  0  0
 26 28  1  0  0  0  0
 29 30  1  0  0  0  0
 29 31  1  0  0  0  0
 32 33  1  0  0  0  0
 32 34  1  0  0  0  0
 35 36  1  0  0  0  0
 35 37  1  0  0  0  0
 38 39  1  0  0  0  0
 38 40  1  0  0  0  0
 41 42  1  0  0  0  0
 41 43  1  0  0  0  0
 44 45  1  0  0  0  0
 44 46  1  0  0  0  0
 47 48  1  0  0  0  0
 48 49  1  0  0  0  0
M  END
