 xtb: 6.7.1 (edcfbbe)
          06092518033D

 37 29  0     0  0            999 V2000
    0.8868    1.2448    1.1426 N   0  0  0  0  0  0  0  0  0  0  0  0
   -0.0381    0.3059    0.4748 C   0  0  0  0  0  0  0  0  0  0  0  0
   -0.6438    0.9376   -0.7747 C   0  0  0  0  0  0  0  0  0  0  0  0
   -1.3852   -0.1034   -1.6220 C   0  0  0  0  0  0  0  0  0  0  0  0
   -0.4093   -1.1233   -2.2227 C   0  0  0  0  0  0  0  0  0  0  0  0
    0.0822   -1.9965   -1.4902 O   0  0  0  0  0  0  0  0  0  0  0  0
   -0.1224   -0.9983   -3.4496 O   0  0  0  0  0  0  0  0  0  0  0  0
    1.6943    1.4946    0.4954 H   0  0  0  0  0  0  0  0  0  0  0  0
    0.4015    2.1137    1.3801 H   0  0  0  0  0  0  0  0  0  0  0  0
   -0.8361    0.0185    1.1607 H   0  0  0  0  0  0  0  0  0  0  0  0
    0.4999   -0.5992    0.1888 H   0  0  0  0  0  0  0  0  0  0  0  0
    0.1395    1.3896   -1.3847 H   0  0  0  0  0  0  0  0  0  0  0  0
   -1.3532    1.7194   -0.4996 H   0  0  0  0  0  0  0  0  0  0  0  0
   -2.1038   -0.6495   -1.0078 H   0  0  0  0  0  0  0  0  0  0  0  0
   -1.9101    0.3864   -2.4430 H   0  0  0  0  0  0  0  0  0  0  0  0
    1.2761    0.8285    1.9911 H   0  0  0  0  0  0  0  0  0  0  0  0
    2.1663   -2.5099   -3.5899 O   0  0  0  0  0  0  0  0  0  0  0  0
    2.3400   -2.8481   -2.7057 H   0  0  0  0  0  0  0  0  0  0  0  0
    1.3171   -2.0196   -3.5115 H   0  0  0  0  0  0  0  0  0  0  0  0
    1.4644    3.0787   -2.4743 O   0  0  0  0  0  0  0  0  0  0  0  0
    1.3219    2.4683   -3.2284 H   0  0  0  0  0  0  0  0  0  0  0  0
    1.5058    3.9630   -2.8470 H   0  0  0  0  0  0  0  0  0  0  0  0
    2.7848   -0.5330   -5.5455 O   0  0  0  0  0  0  0  0  0  0  0  0
    2.0695   -0.8982   -6.0912 H   0  0  0  0  0  0  0  0  0  0  0  0
    2.8815   -1.1825   -4.8310 H   0  0  0  0  0  0  0  0  0  0  0  0
    0.2134   -1.5344   -6.2560 O   0  0  0  0  0  0  0  0  0  0  0  0
   -0.4731   -1.1027   -6.7733 H   0  0  0  0  0  0  0  0  0  0  0  0
    0.0059   -1.3641   -5.3235 H   0  0  0  0  0  0  0  0  0  0  0  0
    0.8342   -4.2097   -5.4354 O   0  0  0  0  0  0  0  0  0  0  0  0
    1.4061   -3.8050   -4.7607 H   0  0  0  0  0  0  0  0  0  0  0  0
    0.5265   -3.4532   -5.9578 H   0  0  0  0  0  0  0  0  0  0  0  0
    1.0363    1.2845   -4.4501 O   0  0  0  0  0  0  0  0  0  0  0  0
    0.5235    0.5438   -4.0771 H   0  0  0  0  0  0  0  0  0  0  0  0
    1.7857    0.8427   -4.8999 H   0  0  0  0  0  0  0  0  0  0  0  0
    2.9149    1.9588   -0.4680 O   0  0  0  0  0  0  0  0  0  0  0  0
    2.4768    2.4332   -1.2033 H   0  0  0  0  0  0  0  0  0  0  0  0
    3.5141    1.3216   -0.8653 H   0  0  0  0  0  0  0  0  0  0  0  0
  1  2  1  0  0  0  0
  2  3  1  0  0  0  0
  3  4  1  0  0  0  0
  4  5  1  0  0  0  0
  5  6  2  0  0  0  0
  5  7  4  0  0  0  0
  1  8  1  0  0  0  0
  1  9  1  0  0  0  0
  2 10  1  0  0  0  0
  2 11  1  0  0  0  0
  3 12  1  0  0  0  0
  3 13  1  0  0  0  0
  4 14  1  0  0  0  0
  4 15  1  0  0  0  0
  1 16  1  0  0  0  0
 17 18  1  0  0  0  0
 17 19  1  0  0  0  0
 20 21  1  0  0  0  0
 20 22  1  0  0  0  0
 23 24  1  0  0  0  0
 23 25  1  0  0  0  0
 26 27  1  0  0  0  0
 26 28  1  0  0  0  0
 29 30  1  0  0  0  0
 29 31  1  0  0  0  0
 32 33  1  0  0  0  0
 32 34  1  0  0  0  0
 35 36  1  0  0  0  0
 35 37  1  0  0  0  0
M  END
