          37
  Built with Packmol                                             
  N            0.064952       -0.170366        2.240690
  C           -0.425087       -0.283877        0.868279
  C            0.367730        0.641149       -0.071166
  C           -0.134429        0.597594       -1.523145
  C            0.096668       -0.713488       -2.230733
  O            0.727246       -1.739965       -1.628533
  O           -0.270635       -0.838959       -3.387000
  H            1.072330       -0.447205        2.286531
  H           -0.048728        0.810713        2.583748
  H           -1.501047       -0.002735        0.840683
  H           -0.338388       -1.340879        0.545678
  H            1.449826        0.389794       -0.041707
  H            0.245710        1.683089        0.295720
  H           -1.217927        0.840241       -1.535888
  H            0.400055        1.383318       -2.098747
  H           -0.488277       -0.808425        2.855591
  O           -3.148111       -2.213572        2.846019
  H           -2.906802       -1.510459        2.191792
  H           -2.875555       -1.841261        3.722211
  O            2.114304       -2.625150        1.872497
  H            3.061003       -2.392593        1.698458
  H            2.059535       -3.596563        1.688185
  O            1.213605       -2.779703        6.273337
  H            0.285719       -3.022149        6.520033
  H            1.373215       -1.914587        6.727992
  O           -0.268933       -3.582622        0.303140
  H           -1.169543       -3.846748        0.618971
  H            0.316541       -4.337709        0.563292
  O            0.855763       -2.348227        3.672780
  H            0.848809       -3.325798        3.514931
  H            0.202920       -2.210415        4.404501
  O            2.761710       -2.013779        4.776420
  H            2.535713       -1.128710        4.394072
  H            3.033545       -2.559155        3.995855
  O           -1.475052       -3.661210        4.291758
  H           -0.843069       -4.415177        4.404642
  H           -1.346424       -3.367831        3.354743
