 xtb: 6.7.1 (edcfbbe)
          06092518083D

 37 29  0     0  0            999 V2000
   -0.2041   -0.9241    1.1587 N   0  0  0  0  0  0  0  0  0  0  0  0
   -0.1203    0.5443    1.2262 C   0  0  0  0  0  0  0  0  0  0  0  0
   -0.7097    1.1884   -0.0273 C   0  0  0  0  0  0  0  0  0  0  0  0
    0.2148    1.1641   -1.2508 C   0  0  0  0  0  0  0  0  0  0  0  0
    0.2602   -0.1461   -2.0637 C   0  0  0  0  0  0  0  0  0  0  0  0
    0.4452   -0.0327   -3.2961 O   0  0  0  0  0  0  0  0  0  0  0  0
    0.1405   -1.2399   -1.4699 O   0  0  0  0  0  0  0  0  0  0  0  0
    0.4650   -1.3802    1.8031 H   0  0  0  0  0  0  0  0  0  0  0  0
   -1.1625   -1.2531    1.4026 H   0  0  0  0  0  0  0  0  0  0  0  0
   -0.6711    0.8888    2.1020 H   0  0  0  0  0  0  0  0  0  0  0  0
    0.9242    0.8430    1.3251 H   0  0  0  0  0  0  0  0  0  0  0  0
   -0.9279    2.2337    0.1938 H   0  0  0  0  0  0  0  0  0  0  0  0
   -1.6513    0.6995   -0.2805 H   0  0  0  0  0  0  0  0  0  0  0  0
    1.2464    1.3725   -0.9537 H   0  0  0  0  0  0  0  0  0  0  0  0
   -0.0771    1.9414   -1.9601 H   0  0  0  0  0  0  0  0  0  0  0  0
   -0.0068   -1.2119    0.1646 H   0  0  0  0  0  0  0  0  0  0  0  0
    1.5936   -2.1506    2.9293 O   0  0  0  0  0  0  0  0  0  0  0  0
    1.6972   -1.8454    3.8357 H   0  0  0  0  0  0  0  0  0  0  0  0
    2.4644   -2.3880    2.5992 H   0  0  0  0  0  0  0  0  0  0  0  0
    4.4217   -3.8344   -1.3587 O   0  0  0  0  0  0  0  0  0  0  0  0
    4.4100   -3.1245   -2.0075 H   0  0  0  0  0  0  0  0  0  0  0  0
    3.6306   -4.3610   -1.5129 H   0  0  0  0  0  0  0  0  0  0  0  0
   -1.6944   -4.4449    2.6665 O   0  0  0  0  0  0  0  0  0  0  0  0
   -1.7557   -4.6638    3.6025 H   0  0  0  0  0  0  0  0  0  0  0  0
   -0.7607   -4.4874    2.4323 H   0  0  0  0  0  0  0  0  0  0  0  0
   -2.6341   -1.9082    2.0079 O   0  0  0  0  0  0  0  0  0  0  0  0
   -2.3740   -2.8162    2.2545 H   0  0  0  0  0  0  0  0  0  0  0  0
   -3.4425   -1.9870    1.4962 H   0  0  0  0  0  0  0  0  0  0  0  0
   -2.8302   -6.5783    1.0722 O   0  0  0  0  0  0  0  0  0  0  0  0
   -2.6275   -6.3522    0.1521 H   0  0  0  0  0  0  0  0  0  0  0  0
   -2.5214   -5.8208    1.5973 H   0  0  0  0  0  0  0  0  0  0  0  0
   -2.0613   -5.6084   -1.5474 O   0  0  0  0  0  0  0  0  0  0  0  0
   -2.5240   -4.9104   -2.0209 H   0  0  0  0  0  0  0  0  0  0  0  0
   -1.1543   -5.6074   -1.8687 H   0  0  0  0  0  0  0  0  0  0  0  0
    0.6936   -2.2975   -4.8254 O   0  0  0  0  0  0  0  0  0  0  0  0
    0.5830   -1.9499   -5.7158 H   0  0  0  0  0  0  0  0  0  0  0  0
    0.6080   -1.5198   -4.2317 H   0  0  0  0  0  0  0  0  0  0  0  0
  1  2  1  0  0  0  0
  2  3  1  0  0  0  0
  3  4  1  0  0  0  0
  4  5  1  0  0  0  0
  5  6  4  0  0  0  0
  5  7  4  0  0  0  0
  1  8  1  0  0  0  0
  1  9  1  0  0  0  0
  2 10  1  0  0  0  0
  2 11  1  0  0  0  0
  3 12  1  0  0  0  0
  3 13  1  0  0  0  0
  4 14  1  0  0  0  0
  4 15  1  0  0  0  0
  1 16  1  0  0  0  0
 17 18  1  0  0  0  0
 17 19  1  0  0  0  0
 20 21  1  0  0  0  0
 20 22  1  0  0  0  0
 23 24  1  0  0  0  0
 23 25  1  0  0  0  0
 26 27  1  0  0  0  0
 26 28  1  0  0  0  0
 29 30  1  0  0  0  0
 29 31  1  0  0  0  0
 32 33  1  0  0  0  0
 32 34  1  0  0  0  0
 35 36  1  0  0  0  0
 35 37  1  0  0  0  0
M  END
