          37
  Built with Packmol                                             
  N           -0.443767       -0.471812        1.745205
  C            0.693510        0.104360        1.026899
  C            0.252325        0.999585       -0.146245
  C           -0.573823        0.306802       -1.244857
  C            0.172762       -0.788129       -1.957711
  O            0.408222       -0.687945       -3.151027
  O            0.546344       -1.903284       -1.303739
  H           -0.087472       -1.004114        2.571270
  H           -1.081184        0.285863        2.081386
  H            1.280979        0.732860        1.731174
  H            1.368045       -0.703734        0.677139
  H            1.158667        1.443130       -0.611175
  H           -0.355788        1.834342        0.265274
  H           -1.517364       -0.100802       -0.829235
  H           -0.852734        1.086771       -1.985872
  H           -0.968720       -1.133893        1.131516
  O            4.185897        1.472903        0.351899
  H            3.247915        1.285985        0.095262
  H            4.714827        0.781863       -0.120658
  O            3.294867        0.174030        2.406942
  H            3.239677        1.129571        2.660924
  H            3.923051       -0.221075        3.062602
  O            3.347499       -2.099680        0.373360
  H            3.145077       -2.542059       -0.489158
  H            3.857431       -1.288698        0.122581
  O            3.034753       -0.791437       -2.254059
  H            3.231419        0.178449       -2.289457
  H            3.911380       -1.215985       -2.075464
  O            2.856008        2.359931       -2.957645
  H            3.494398        2.801094       -3.572823
  H            2.333572        1.750464       -3.537493
  O            3.122611       -2.785205       -3.668417
  H            2.357275       -2.704640       -4.291620
  H            2.706575       -2.941243       -2.783443
  O            3.205658       -0.203288       -4.914737
  H            3.895083       -0.556598       -4.297909
  H            2.346425       -0.503655       -4.524722
