 xtb: 6.7.1 (edcfbbe)
          06092518063D

 37 29  0     0  0            999 V2000
    0.7408    0.0763    1.2421 N   0  0  0  0  0  0  0  0  0  0  0  0
    1.0457    0.9155    0.0696 C   0  0  0  0  0  0  0  0  0  0  0  0
   -0.1495    1.0532   -0.8710 C   0  0  0  0  0  0  0  0  0  0  0  0
   -0.8219   -0.2847   -1.2259 C   0  0  0  0  0  0  0  0  0  0  0  0
    0.1975   -1.3985   -1.5012 C   0  0  0  0  0  0  0  0  0  0  0  0
    0.5719   -1.5941   -2.6833 O   0  0  0  0  0  0  0  0  0  0  0  0
    0.6066   -2.0544   -0.5174 O   0  0  0  0  0  0  0  0  0  0  0  0
    1.6050   -0.0042    1.8717 H   0  0  0  0  0  0  0  0  0  0  0  0
   -0.0520    0.4391    1.7701 H   0  0  0  0  0  0  0  0  0  0  0  0
    1.3669    1.9033    0.3974 H   0  0  0  0  0  0  0  0  0  0  0  0
    1.8750    0.4560   -0.4670 H   0  0  0  0  0  0  0  0  0  0  0  0
    0.2044    1.5226   -1.7880 H   0  0  0  0  0  0  0  0  0  0  0  0
   -0.9064    1.7057   -0.4329 H   0  0  0  0  0  0  0  0  0  0  0  0
   -1.4614   -0.6256   -0.4095 H   0  0  0  0  0  0  0  0  0  0  0  0
   -1.4381   -0.1535   -2.1161 H   0  0  0  0  0  0  0  0  0  0  0  0
    0.5365   -0.8791    0.8909 H   0  0  0  0  0  0  0  0  0  0  0  0
    4.6816    1.1324    0.9495 O   0  0  0  0  0  0  0  0  0  0  0  0
    4.5770    0.6086    0.1410 H   0  0  0  0  0  0  0  0  0  0  0  0
    5.6260    1.2604    1.0699 H   0  0  0  0  0  0  0  0  0  0  0  0
    3.0070   -0.3224    2.5602 O   0  0  0  0  0  0  0  0  0  0  0  0
    3.6261    0.3160    2.1536 H   0  0  0  0  0  0  0  0  0  0  0  0
    3.1654   -1.1530    2.0652 H   0  0  0  0  0  0  0  0  0  0  0  0
    3.1861   -2.1807    0.5765 O   0  0  0  0  0  0  0  0  0  0  0  0
    2.3019   -2.3414    0.2080 H   0  0  0  0  0  0  0  0  0  0  0  0
    3.6261   -1.6032   -0.0716 H   0  0  0  0  0  0  0  0  0  0  0  0
    4.1296   -0.3970   -1.4287 O   0  0  0  0  0  0  0  0  0  0  0  0
    3.7185    0.3932   -1.8340 H   0  0  0  0  0  0  0  0  0  0  0  0
    3.9761   -1.1044   -2.0791 H   0  0  0  0  0  0  0  0  0  0  0  0
    2.8498    1.7383   -2.5943 O   0  0  0  0  0  0  0  0  0  0  0  0
    3.2556    2.4892   -3.0369 H   0  0  0  0  0  0  0  0  0  0  0  0
    2.1936    1.3677   -3.2160 H   0  0  0  0  0  0  0  0  0  0  0  0
    3.1563   -2.3532   -3.1490 O   0  0  0  0  0  0  0  0  0  0  0  0
    3.2440   -3.3102   -3.1608 H   0  0  0  0  0  0  0  0  0  0  0  0
    2.2082   -2.1653   -2.9853 H   0  0  0  0  0  0  0  0  0  0  0  0
    0.9826    0.5819   -4.2506 O   0  0  0  0  0  0  0  0  0  0  0  0
    1.2422    0.2686   -5.1222 H   0  0  0  0  0  0  0  0  0  0  0  0
    0.7768   -0.2221   -3.7287 H   0  0  0  0  0  0  0  0  0  0  0  0
  1  2  1  0  0  0  0
  2  3  1  0  0  0  0
  3  4  1  0  0  0  0
  4  5  1  0  0  0  0
  5  6  4  0  0  0  0
  5  7  4  0  0  0  0
  1  8  1  0  0  0  0
  1  9  1  0  0  0  0
  2 10  1  0  0  0  0
  2 11  1  0  0  0  0
  3 12  1  0  0  0  0
  3 13  1  0  0  0  0
  4 14  1  0  0  0  0
  4 15  1  0  0  0  0
  1 16  1  0  0  0  0
 17 18  1  0  0  0  0
 17 19  1  0  0  0  0
 20 21  1  0  0  0  0
 20 22  1  0  0  0  0
 23 24  1  0  0  0  0
 23 25  1  0  0  0  0
 26 27  1  0  0  0  0
 26 28  1  0  0  0  0
 29 30  1  0  0  0  0
 29 31  1  0  0  0  0
 32 33  1  0  0  0  0
 32 34  1  0  0  0  0
 35 36  1  0  0  0  0
 35 37  1  0  0  0  0
M  END
