 xtb: 6.7.1 (edcfbbe)
          06092518083D

 37 29  0     0  0            999 V2000
    0.5693   -0.6102    1.2991 N   0  0  0  0  0  0  0  0  0  0  0  0
   -0.2095    0.6308    1.1108 C   0  0  0  0  0  0  0  0  0  0  0  0
   -1.2775    0.4321    0.0421 C   0  0  0  0  0  0  0  0  0  0  0  0
   -0.7455    0.4471   -1.3970 C   0  0  0  0  0  0  0  0  0  0  0  0
   -0.1529   -0.8640   -1.9272 C   0  0  0  0  0  0  0  0  0  0  0  0
   -0.5054   -1.2635   -3.0538 O   0  0  0  0  0  0  0  0  0  0  0  0
    0.6955   -1.4699   -1.2160 O   0  0  0  0  0  0  0  0  0  0  0  0
    1.4317   -0.4521    1.8185 H   0  0  0  0  0  0  0  0  0  0  0  0
   -0.0084   -1.3236    1.7899 H   0  0  0  0  0  0  0  0  0  0  0  0
   -0.6866    0.9025    2.0521 H   0  0  0  0  0  0  0  0  0  0  0  0
    0.4595    1.4368    0.8077 H   0  0  0  0  0  0  0  0  0  0  0  0
   -1.9994    1.2457    0.1178 H   0  0  0  0  0  0  0  0  0  0  0  0
   -1.8097   -0.5020    0.2256 H   0  0  0  0  0  0  0  0  0  0  0  0
    0.0373    1.2037   -1.4980 H   0  0  0  0  0  0  0  0  0  0  0  0
   -1.5526    0.7239   -2.0739 H   0  0  0  0  0  0  0  0  0  0  0  0
    0.7830   -0.9981    0.3373 H   0  0  0  0  0  0  0  0  0  0  0  0
   -1.0455   -2.4728    2.5933 O   0  0  0  0  0  0  0  0  0  0  0  0
   -1.1152   -2.5491    3.5502 H   0  0  0  0  0  0  0  0  0  0  0  0
   -1.0338   -3.3633    2.2323 H   0  0  0  0  0  0  0  0  0  0  0  0
    1.6833   -3.8871   -2.0081 O   0  0  0  0  0  0  0  0  0  0  0  0
    1.1560   -4.1309   -2.7736 H   0  0  0  0  0  0  0  0  0  0  0  0
    1.3596   -2.9990   -1.7370 H   0  0  0  0  0  0  0  0  0  0  0  0
   -2.9255   -0.4991   -4.1019 O   0  0  0  0  0  0  0  0  0  0  0  0
   -3.5283   -1.0775   -3.6031 H   0  0  0  0  0  0  0  0  0  0  0  0
   -2.0269   -0.7747   -3.8261 H   0  0  0  0  0  0  0  0  0  0  0  0
   -4.6593   -2.1036   -2.5311 O   0  0  0  0  0  0  0  0  0  0  0  0
   -5.3875   -1.6580   -2.0847 H   0  0  0  0  0  0  0  0  0  0  0  0
   -4.9888   -2.9558   -2.8336 H   0  0  0  0  0  0  0  0  0  0  0  0
   -3.4972    2.7932   -0.7711 O   0  0  0  0  0  0  0  0  0  0  0  0
   -3.4445    2.5748   -1.7166 H   0  0  0  0  0  0  0  0  0  0  0  0
   -4.3549    3.2100   -0.6463 H   0  0  0  0  0  0  0  0  0  0  0  0
   -3.3738    2.1340   -3.5189 O   0  0  0  0  0  0  0  0  0  0  0  0
   -2.9881    2.6428   -4.2379 H   0  0  0  0  0  0  0  0  0  0  0  0
   -3.2576    1.1915   -3.7629 H   0  0  0  0  0  0  0  0  0  0  0  0
    2.4522   -5.6145    0.0720 O   0  0  0  0  0  0  0  0  0  0  0  0
    3.4119   -5.5489    0.0477 H   0  0  0  0  0  0  0  0  0  0  0  0
    2.1345   -5.0416   -0.6489 H   0  0  0  0  0  0  0  0  0  0  0  0
  1  2  1  0  0  0  0
  2  3  1  0  0  0  0
  3  4  1  0  0  0  0
  4  5  1  0  0  0  0
  5  6  2  0  0  0  0
  5  7  4  0  0  0  0
  1  8  1  0  0  0  0
  1  9  1  0  0  0  0
  2 10  1  0  0  0  0
  2 11  1  0  0  0  0
  3 12  1  0  0  0  0
  3 13  1  0  0  0  0
  4 14  1  0  0  0  0
  4 15  1  0  0  0  0
  1 16  1  0  0  0  0
 17 18  1  0  0  0  0
 17 19  1  0  0  0  0
 20 21  1  0  0  0  0
 20 22  1  0  0  0  0
 23 24  1  0  0  0  0
 23 25  1  0  0  0  0
 26 27  1  0  0  0  0
 26 28  1  0  0  0  0
 29 30  1  0  0  0  0
 29 31  1  0  0  0  0
 32 33  1  0  0  0  0
 32 34  1  0  0  0  0
 35 36  1  0  0  0  0
 35 37  1  0  0  0  0
M  END
