 xtb: 6.7.1 (edcfbbe)
          06092517583D

 34 26  0     0  0            999 V2000
    0.7141   -1.3040   -0.0487 H   0  0  0  0  0  0  0  0  0  0  0  0
   -0.1649   -0.7086   -0.3058 C   0  0  0  0  0  0  0  0  0  0  0  0
    0.9963    0.2396   -1.7933 H   0  0  0  0  0  0  0  0  0  0  0  0
   -0.8417   -1.3127   -0.9109 H   0  0  0  0  0  0  0  0  0  0  0  0
    0.2705    0.4794   -1.0670 N   0  0  0  0  0  0  0  0  0  0  0  0
   -1.2220   -1.1206    1.5453 H   0  0  0  0  0  0  0  0  0  0  0  0
   -0.8530   -0.2637    0.9848 C   0  0  0  0  0  0  0  0  0  0  0  0
    0.7688    1.4534    1.3620 O   0  0  0  0  0  0  0  0  0  0  0  0
    0.1393    0.4939    1.8869 C   0  0  0  0  0  0  0  0  0  0  0  0
    0.6703    1.1255   -0.3494 H   0  0  0  0  0  0  0  0  0  0  0  0
    0.2826    0.1196    3.0655 O   0  0  0  0  0  0  0  0  0  0  0  0
   -0.5222    0.9371   -1.5170 H   0  0  0  0  0  0  0  0  0  0  0  0
   -1.6911    0.4013    0.7670 H   0  0  0  0  0  0  0  0  0  0  0  0
    2.9259   -0.7427    3.1194 O   0  0  0  0  0  0  0  0  0  0  0  0
    1.9976   -0.5253    3.3194 H   0  0  0  0  0  0  0  0  0  0  0  0
    3.3165    0.1112    2.8534 H   0  0  0  0  0  0  0  0  0  0  0  0
   -1.8043   -2.9377   -2.2139 O   0  0  0  0  0  0  0  0  0  0  0  0
   -2.5558   -3.3790   -1.8093 H   0  0  0  0  0  0  0  0  0  0  0  0
   -1.1048   -3.5946   -2.2948 H   0  0  0  0  0  0  0  0  0  0  0  0
    3.4981    2.3917   -3.0453 O   0  0  0  0  0  0  0  0  0  0  0  0
    3.0247    3.1804   -3.3315 H   0  0  0  0  0  0  0  0  0  0  0  0
    4.0732    2.6521   -2.3199 H   0  0  0  0  0  0  0  0  0  0  0  0
    2.4467   -2.3398    0.8969 O   0  0  0  0  0  0  0  0  0  0  0  0
    2.6932   -1.7870    1.6625 H   0  0  0  0  0  0  0  0  0  0  0  0
    2.5649   -3.2492    1.1849 H   0  0  0  0  0  0  0  0  0  0  0  0
    3.2964    1.9026    2.2908 O   0  0  0  0  0  0  0  0  0  0  0  0
    3.2727    2.6039    2.9483 H   0  0  0  0  0  0  0  0  0  0  0  0
    2.3764    1.8177    1.9550 H   0  0  0  0  0  0  0  0  0  0  0  0
   -2.4877   -1.9710   -4.8035 O   0  0  0  0  0  0  0  0  0  0  0  0
   -2.2747   -2.2457   -3.8943 H   0  0  0  0  0  0  0  0  0  0  0  0
   -1.6838   -1.5827   -5.1605 H   0  0  0  0  0  0  0  0  0  0  0  0
    2.1678   -0.0458   -2.9262 O   0  0  0  0  0  0  0  0  0  0  0  0
    2.8133   -0.7146   -2.6785 H   0  0  0  0  0  0  0  0  0  0  0  0
    2.6631    0.7829   -3.0649 H   0  0  0  0  0  0  0  0  0  0  0  0
  1  2  1  0  0  0  0
  2  4  1  0  0  0  0
  2  5  1  0  0  0  0
  3  5  1  0  0  0  0
  2  7  1  0  0  0  0
  6  7  1  0  0  0  0
  7  9  1  0  0  0  0
  8  9  4  0  0  0  0
  5 10  1  0  0  0  0
  9 11  2  0  0  0  0
  5 12  1  0  0  0  0
  7 13  1  0  0  0  0
 14 15  1  0  0  0  0
 14 16  1  0  0  0  0
 17 18  1  0  0  0  0
 17 19  1  0  0  0  0
 20 21  1  0  0  0  0
 20 22  1  0  0  0  0
 23 24  1  0  0  0  0
 23 25  1  0  0  0  0
 26 27  1  0  0  0  0
 26 28  1  0  0  0  0
 29 30  1  0  0  0  0
 29 31  1  0  0  0  0
 32 33  1  0  0  0  0
 32 34  1  0  0  0  0
M  END
