          34
  Built with Packmol                                             
  H            1.511317       -0.306828       -0.555014
  C            0.423564       -0.532721       -0.609717
  H            0.153518        0.482840       -2.377127
  H            0.306225       -1.519929       -1.108019
  N           -0.266872        0.473091       -1.420552
  H            0.312435       -1.513062        1.312585
  C           -0.165166       -0.646649        0.806799
  O            0.750464        1.631323        1.241066
  C            0.056943        0.562514        1.678499
  H           -0.170369        1.427689       -1.011410
  O           -0.378051        0.562370        2.818531
  H           -1.279945        0.228297       -1.503809
  H           -1.254063       -0.848936        0.728169
  O           -0.381817        1.068955        6.107758
  H           -0.471732        0.720656        7.030370
  H           -1.214723        0.785509        5.653291
  O            0.105994       -4.287940       -2.061414
  H            0.916976       -3.724609       -1.986728
  H           -0.309934       -4.011899       -2.916645
  O           -0.924869       -1.340735       -6.617247
  H           -0.038325       -1.401342       -6.180239
  H           -1.559026       -1.189204       -5.871930
  O           -1.921904       -2.519771       -3.473321
  H           -1.452181       -2.743643       -4.315848
  H           -2.483151       -1.736818       -3.702667
  O           -1.695075        2.866960       -3.676207
  H           -1.325001        2.885231       -2.757880
  H           -1.757934        1.904197       -3.899253
  O           -1.243631       -2.839029        3.035161
  H           -2.053894       -3.082863        2.520738
  H           -0.565818       -3.507225        2.761854
  O            0.748998       -1.885307       -4.157018
  H            0.307044       -1.927899       -3.271878
  H            0.911361       -2.831706       -4.399052
