          34
  Built with Packmol                                             
  H            1.511317       -0.306828       -0.555014
  C            0.423564       -0.532721       -0.609717
  H            0.153518        0.482840       -2.377127
  H            0.306225       -1.519929       -1.108019
  N           -0.266872        0.473091       -1.420552
  H            0.312435       -1.513062        1.312585
  C           -0.165166       -0.646649        0.806799
  O            0.750464        1.631323        1.241066
  C            0.056943        0.562514        1.678499
  H           -0.170369        1.427689       -1.011410
  O           -0.378051        0.562370        2.818531
  H           -1.279945        0.228297       -1.503809
  H           -1.254063       -0.848936        0.728169
  O            2.177801       -2.660614       -0.003271
  H            1.999005       -2.916094       -0.943150
  H            2.733533       -3.398730        0.353044
  O            0.036938       -2.095277       -6.601975
  H            0.116518       -1.111310       -6.679995
  H            0.507735       -2.316219       -5.759272
  O           -1.669234       -1.851521       -4.275265
  H           -0.979875       -2.551999       -4.153914
  H           -1.393024       -1.371140       -5.095969
  O            0.658762        3.019043        3.657453
  H            0.731779        2.079237        3.960839
  H            0.498870        3.535803        4.486915
  O            1.443521       -0.467570       -5.039709
  H            1.718087       -0.975741       -4.235355
  H            0.565190       -0.078422       -4.799478
  O            1.639164       -1.903928        3.722433
  H            2.515472       -1.499281        3.943689
  H            1.593142       -2.718379        4.283828
  O            1.199072        1.227063        6.350395
  H            1.901853        0.994657        5.692597
  H            0.971057        2.169101        6.147448
