          34
  Built with Packmol                                             
  H            1.511317       -0.306828       -0.555014
  C            0.423564       -0.532721       -0.609717
  H            0.153518        0.482840       -2.377127
  H            0.306225       -1.519929       -1.108019
  N           -0.266872        0.473091       -1.420552
  H            0.312435       -1.513062        1.312585
  C           -0.165166       -0.646649        0.806799
  O            0.750464        1.631323        1.241066
  C            0.056943        0.562514        1.678499
  H           -0.170369        1.427689       -1.011410
  O           -0.378051        0.562370        2.818531
  H           -1.279945        0.228297       -1.503809
  H           -1.254063       -0.848936        0.728169
  O           -2.585916       -3.132455        2.151404
  H           -2.428928       -2.162516        2.028179
  H           -1.682100       -3.515453        2.281952
  O           -1.684166        3.040600        3.370684
  H           -1.987787        3.273545        2.457360
  H           -2.278032        2.298191        3.647751
  O           -2.053300        2.419192       -3.380881
  H           -1.761259        3.158164       -3.971849
  H           -2.501173        1.778002       -3.988251
  O           -2.328498       -2.503604        5.201257
  H           -2.200419       -2.958946        4.331275
  H           -1.551496       -2.786484        5.746105
  O           -0.580095       -1.371058       -4.959813
  H           -1.365918       -0.768614       -4.972166
  H           -0.827790       -2.088927       -4.324263
  O            0.951645        2.192590       -5.116557
  H            1.009486        3.172615       -5.246235
  H            0.425832        1.870410       -5.891370
  O           -1.807902       -3.604529       -0.884939
  H           -2.306455       -3.093160       -1.570911
  H           -0.857506       -3.508612       -1.146017
