          34
  Built with Packmol                                             
  H            1.511317       -0.306828       -0.555014
  C            0.423564       -0.532721       -0.609717
  H            0.153518        0.482840       -2.377127
  H            0.306225       -1.519929       -1.108019
  N           -0.266872        0.473091       -1.420552
  H            0.312435       -1.513062        1.312585
  C           -0.165166       -0.646649        0.806799
  O            0.750464        1.631323        1.241066
  C            0.056943        0.562514        1.678499
  H           -0.170369        1.427689       -1.011410
  O           -0.378051        0.562370        2.818531
  H           -1.279945        0.228297       -1.503809
  H           -1.254063       -0.848936        0.728169
  O            1.736852        3.094597       -3.295531
  H            2.001722        3.537755       -2.450507
  H            1.284437        2.262031       -3.007837
  O           -1.483064        3.658333       -0.586398
  H           -2.067652        4.298590       -1.064874
  H           -1.091857        4.185734        0.154829
  O           -2.865595        2.637543       -2.608842
  H           -3.431177        3.448047       -2.670581
  H           -3.412792        1.921334       -3.019003
  O           -1.521336        2.725445       -4.334325
  H           -1.813755        2.740677       -5.280301
  H           -1.501833        1.764462       -4.096115
  O           -3.443119        2.248929       -0.519646
  H           -3.789305        3.154452       -0.317667
  H           -3.176361        1.883151        0.361069
  O            0.938022        2.927811       -5.526775
  H            0.569154        3.713765       -5.050516
  H            0.434744        2.157388       -5.161026
  O            0.013520        4.451779       -2.213204
  H           -0.260334        3.971329       -3.034655
  H           -0.501246        5.297390       -2.237089
