          34
  Built with Packmol                                             
  H            1.511317       -0.306828       -0.555014
  C            0.423564       -0.532721       -0.609717
  H            0.153518        0.482840       -2.377127
  H            0.306225       -1.519929       -1.108019
  N           -0.266872        0.473091       -1.420552
  H            0.312435       -1.513062        1.312585
  C           -0.165166       -0.646649        0.806799
  O            0.750464        1.631323        1.241066
  C            0.056943        0.562514        1.678499
  H           -0.170369        1.427689       -1.011410
  O           -0.378051        0.562370        2.818531
  H           -1.279945        0.228297       -1.503809
  H           -1.254063       -0.848936        0.728169
  O           -0.764187        3.258057       -5.143143
  H           -1.224100        2.391417       -5.277400
  H           -1.193764        3.644966       -4.339167
  O           -2.381441        2.542221       -2.842185
  H           -2.742227        2.182501       -1.993041
  H           -1.864603        1.791745       -3.229841
  O            0.631889        1.776119       -4.279286
  H            1.412536        1.236927       -3.995609
  H            0.441381        2.363314       -3.504998
  O            2.753125        3.003535       -3.833716
  H            2.222914        3.648532       -3.301300
  H            2.389871        3.081710       -4.751620
  O           -0.556491        3.584694       -1.233612
  H            0.096440        4.325694       -1.161437
  H           -1.398719        4.022714       -1.515401
  O            2.338772        2.596821       -0.937408
  H            2.182500        3.573437       -0.986506
  H            1.780470        2.219442       -1.663009
  O           -1.372761        3.826654        0.804987
  H           -0.999316        2.986265        1.172268
  H           -1.947536        4.180302        1.529680
