          34
  Built with Packmol                                             
  H            1.511317       -0.306828       -0.555014
  C            0.423564       -0.532721       -0.609717
  H            0.153518        0.482840       -2.377127
  H            0.306225       -1.519929       -1.108019
  N           -0.266872        0.473091       -1.420552
  H            0.312435       -1.513062        1.312585
  C           -0.165166       -0.646649        0.806799
  O            0.750464        1.631323        1.241066
  C            0.056943        0.562514        1.678499
  H           -0.170369        1.427689       -1.011410
  O           -0.378051        0.562370        2.818531
  H           -1.279945        0.228297       -1.503809
  H           -1.254063       -0.848936        0.728169
  O           -2.595497        2.921747        0.665696
  H           -2.205241        2.138055        1.128447
  H           -2.358674        2.790711       -0.286857
  O           -1.980370       -0.096809       -4.280581
  H           -1.948845       -1.002270       -3.880884
  H           -2.106994       -0.257577       -5.249463
  O           -0.541999       -0.454522        5.075865
  H           -1.147538        0.299151        4.861597
  H           -0.736930       -1.134216        4.382590
  O           -0.487177        1.604651        6.802768
  H           -0.124882        0.689250        6.909513
  H           -0.118524        1.918199        5.938826
  O            1.608203        3.118777       -2.388576
  H            1.869016        2.579973       -3.177422
  H            0.719073        3.486718       -2.622415
  O           -3.809325        1.044181       -1.442132
  H           -3.047259        1.476254       -1.903846
  H           -3.398150        0.313633       -0.915021
  O            1.838193       -0.069604       -5.815080
  H            1.627985        0.621989       -6.491929
  H            2.406719        0.396940       -5.151960
