          34
  Built with Packmol                                             
  H            1.511317       -0.306828       -0.555014
  C            0.423564       -0.532721       -0.609717
  H            0.153518        0.482840       -2.377127
  H            0.306225       -1.519929       -1.108019
  N           -0.266872        0.473091       -1.420552
  H            0.312435       -1.513062        1.312585
  C           -0.165166       -0.646649        0.806799
  O            0.750464        1.631323        1.241066
  C            0.056943        0.562514        1.678499
  H           -0.170369        1.427689       -1.011410
  O           -0.378051        0.562370        2.818531
  H           -1.279945        0.228297       -1.503809
  H           -1.254063       -0.848936        0.728169
  O            1.169464       -4.043447        2.229118
  H            0.243328       -3.693229        2.244277
  H            1.638906       -3.534176        2.936846
  O            3.303807        1.478975       -1.498189
  H            3.166037        2.094363       -0.734691
  H            2.957701        1.975028       -2.282252
  O           -0.707509        0.136020       -5.666617
  H           -1.598099        0.467876       -5.388531
  H           -0.762124       -0.846170       -5.552898
  O           -1.687855       -3.510004       -2.539085
  H           -2.084590       -2.785123       -1.993412
  H           -2.423528       -4.162144       -2.657885
  O            1.003253       -2.355314        4.698213
  H            1.812648       -1.850633        4.964272
  H            0.603498       -1.816882        3.969584
  O           -0.257197        2.159873       -4.939338
  H            0.388301        2.884437       -4.741976
  H           -0.820808        2.521601       -5.668796
  O            0.242002       -2.502438       -3.093875
  H            0.508567       -3.430530       -2.874329
  H           -0.096582       -2.554754       -4.022980
