          34
  Built with Packmol                                             
  H            1.511317       -0.306828       -0.555014
  C            0.423564       -0.532721       -0.609717
  H            0.153518        0.482840       -2.377127
  H            0.306225       -1.519929       -1.108019
  N           -0.266872        0.473091       -1.420552
  H            0.312435       -1.513062        1.312585
  C           -0.165166       -0.646649        0.806799
  O            0.750464        1.631323        1.241066
  C            0.056943        0.562514        1.678499
  H           -0.170369        1.427689       -1.011410
  O           -0.378051        0.562370        2.818531
  H           -1.279945        0.228297       -1.503809
  H           -1.254063       -0.848936        0.728169
  O           -2.532513       -2.536818       -3.925155
  H           -1.953209       -2.206355       -4.657148
  H           -2.063448       -3.337664       -3.579848
  O           -2.299957        3.025800        2.832016
  H           -2.533381        2.516801        2.015289
  H           -2.143837        2.331673        3.520802
  O           -1.886291       -2.884867       -0.935953
  H           -2.813365       -2.610412       -1.150008
  H           -1.792415       -3.781855       -1.344869
  O            1.987024       -2.951722       -2.895917
  H            1.097503       -2.818227       -3.310093
  H            1.846793       -3.675576       -2.234870
  O            1.768854        2.739806       -3.839667
  H            0.948233        3.090439       -3.410424
  H            2.239995        2.255522       -3.115713
  O           -2.518139       -2.846050        1.168303
  H           -2.589964       -2.555602        2.112280
  H           -2.336643       -3.818110        1.220938
  O           -1.532141        2.861228       -3.377212
  H           -2.423436        2.431859       -3.334252
  H           -1.573821        3.587199       -2.705020
