          34
  Built with Packmol                                             
  H            1.511317       -0.306828       -0.555014
  C            0.423564       -0.532721       -0.609717
  H            0.153518        0.482840       -2.377127
  H            0.306225       -1.519929       -1.108019
  N           -0.266872        0.473091       -1.420552
  H            0.312435       -1.513062        1.312585
  C           -0.165166       -0.646649        0.806799
  O            0.750464        1.631323        1.241066
  C            0.056943        0.562514        1.678499
  H           -0.170369        1.427689       -1.011410
  O           -0.378051        0.562370        2.818531
  H           -1.279945        0.228297       -1.503809
  H           -1.254063       -0.848936        0.728169
  O            2.175944        3.291993       -3.647380
  H            1.794050        4.185172       -3.455030
  H            2.861363        3.158772       -2.945194
  O            0.589153        3.106036       -5.169640
  H           -0.386416        3.273790       -5.196755
  H            0.751697        2.467308       -5.908707
  O            0.662187        3.455324       -1.098201
  H            1.504822        2.950683       -0.972044
  H            0.954015        4.360439       -1.374274
  O           -1.158813       -1.725496        4.989210
  H           -0.262082       -1.318139        4.886513
  H           -1.274243       -2.279392        4.176506
  O            2.241863        4.486026        0.416079
  H            3.194160        4.231968        0.511968
  H            1.774349        3.965019        1.116504
  O            3.387653        1.451509        1.240353
  H            2.830185        2.071941        0.706588
  H            4.227974        1.949790        1.402185
  O            3.780063       -1.550755        1.523356
  H            3.529656       -1.391004        2.468019
  H            3.485910       -0.733853        1.047164
