          34
  Built with Packmol                                             
  H            1.511317       -0.306828       -0.555014
  C            0.423564       -0.532721       -0.609717
  H            0.153518        0.482840       -2.377127
  H            0.306225       -1.519929       -1.108019
  N           -0.266872        0.473091       -1.420552
  H            0.312435       -1.513062        1.312585
  C           -0.165166       -0.646649        0.806799
  O            0.750464        1.631323        1.241066
  C            0.056943        0.562514        1.678499
  H           -0.170369        1.427689       -1.011410
  O           -0.378051        0.562370        2.818531
  H           -1.279945        0.228297       -1.503809
  H           -1.254063       -0.848936        0.728169
  O            3.712010        0.828108        2.040989
  H            2.800298        1.192092        1.910957
  H            3.684268       -0.067199        1.618769
  O            2.214197       -1.208393        2.800453
  H            1.351059       -1.383878        3.253011
  H            2.773851       -0.775064        3.493003
  O            1.992422        1.553533        4.586564
  H            2.831526        1.339202        4.106379
  H            1.290932        1.517279        3.888559
  O            2.095731       -3.644598        4.430792
  H            1.172983       -3.305482        4.311843
  H            2.674779       -2.891949        4.150015
  O            1.959189       -3.847008        1.337877
  H            1.000684       -3.640238        1.476168
  H            2.434517       -3.260177        1.978428
  O            1.468990       -0.450975        5.324812
  H            1.373190       -1.428168        5.453369
  H            0.549085       -0.133485        5.141541
  O            2.611429       -2.084899        0.124895
  H            2.694783       -2.851758       -0.496064
  H            3.534630       -1.922857        0.444355
