          34
  Built with Packmol                                             
  H            1.511317       -0.306828       -0.555014
  C            0.423564       -0.532721       -0.609717
  H            0.153518        0.482840       -2.377127
  H            0.306225       -1.519929       -1.108019
  N           -0.266872        0.473091       -1.420552
  H            0.312435       -1.513062        1.312585
  C           -0.165166       -0.646649        0.806799
  O            0.750464        1.631323        1.241066
  C            0.056943        0.562514        1.678499
  H           -0.170369        1.427689       -1.011410
  O           -0.378051        0.562370        2.818531
  H           -1.279945        0.228297       -1.503809
  H           -1.254063       -0.848936        0.728169
  O           -3.044460        0.499846        4.122021
  H           -2.886368        1.443490        3.866769
  H           -3.989614        0.332054        3.878830
  O           -1.946787       -2.172260        3.921956
  H           -0.979249       -2.285558        4.099846
  H           -2.238427       -1.480461        4.567690
  O           -2.676234        3.152527       -0.974529
  H           -2.117988        3.963775       -0.870373
  H           -3.456424        3.454576       -1.504322
  O            2.318946        2.569795       -3.048550
  H            2.066723        3.507407       -2.853926
  H            3.266573        2.621376       -3.331313
  O           -3.169790       -3.860381       -0.160958
  H           -3.983964       -3.328713        0.026286
  H           -2.995147       -4.351553        0.680981
  O           -3.967064        0.694942        1.471804
  H           -3.761614        1.183225        0.635156
  H           -3.082081        0.517076        1.878968
  O           -3.397876       -1.632469        1.526860
  H           -2.687419       -2.321556        1.494896
  H           -3.424157       -1.260480        0.609501
