          34
  Built with Packmol                                             
  H            1.511317       -0.306828       -0.555014
  C            0.423564       -0.532721       -0.609717
  H            0.153518        0.482840       -2.377127
  H            0.306225       -1.519929       -1.108019
  N           -0.266872        0.473091       -1.420552
  H            0.312435       -1.513062        1.312585
  C           -0.165166       -0.646649        0.806799
  O            0.750464        1.631323        1.241066
  C            0.056943        0.562514        1.678499
  H           -0.170369        1.427689       -1.011410
  O           -0.378051        0.562370        2.818531
  H           -1.279945        0.228297       -1.503809
  H           -1.254063       -0.848936        0.728169
  O           -0.455476       -3.966910       -2.143400
  H            0.453987       -3.575880       -2.167566
  H           -0.897095       -3.618446       -2.958359
  O           -3.349396       -1.846740       -1.979694
  H           -3.048171       -1.907650       -1.038331
  H           -3.282913       -0.883504       -2.199628
  O           -1.550459        2.470290       -4.472450
  H           -1.352662        2.864174       -3.585691
  H           -2.007637        1.615990       -4.268064
  O           -0.753785       -1.731327       -5.286486
  H           -0.292059       -2.589299       -5.109553
  H           -0.406588       -1.439674       -6.166830
  O            1.923543       -1.767878       -3.661251
  H            1.898546       -2.750352       -3.782629
  H            2.553866       -1.448161       -4.354855
  O           -0.452221        3.785669        2.672171
  H            0.408556        4.132437        2.326592
  H           -1.129043        4.116979        2.029708
  O           -3.153438        2.367309       -1.413101
  H           -2.975077        2.051681       -2.334610
  H           -2.460187        3.054834       -1.247798
