          34
  Built with Packmol                                             
  H            1.511317       -0.306828       -0.555014
  C            0.423564       -0.532721       -0.609717
  H            0.153518        0.482840       -2.377127
  H            0.306225       -1.519929       -1.108019
  N           -0.266872        0.473091       -1.420552
  H            0.312435       -1.513062        1.312585
  C           -0.165166       -0.646649        0.806799
  O            0.750464        1.631323        1.241066
  C            0.056943        0.562514        1.678499
  H           -0.170369        1.427689       -1.011410
  O           -0.378051        0.562370        2.818531
  H           -1.279945        0.228297       -1.503809
  H           -1.254063       -0.848936        0.728169
  O            1.437838       -3.001748       -3.634901
  H            1.052651       -3.160223       -4.533304
  H            0.682011       -3.146860       -3.011780
  O           -3.189893       -2.602072        3.397707
  H           -2.583473       -2.027681        3.929629
  H           -2.905672       -3.526578        3.610123
  O           -2.642775        0.527733       -4.300093
  H           -1.738081        0.227800       -4.031428
  H           -3.212942       -0.274400       -4.190072
  O           -3.675432       -2.287778       -1.902272
  H           -3.334754       -3.072672       -2.400759
  H           -3.289027       -1.507496       -2.373933
  O           -1.271865       -3.763585        2.164105
  H           -0.396853       -4.064775        1.811614
  H           -1.087955       -2.873401        2.556997
  O           -1.236528       -3.124738       -5.135386
  H           -1.460551       -2.173168       -4.977465
  H           -1.113579       -3.504386       -4.229095
  O           -1.282076       -3.183222       -1.612567
  H           -1.304552       -4.151843       -1.407924
  H           -1.787478       -2.761545       -0.872723
