 xtb: 6.7.1 (edcfbbe)
          06092517533D

 34 26  0     0  0            999 V2000
   -0.4687   -0.2551    0.4015 C   0  0  0  0  0  0  0  0  0  0  0  0
   -1.0320    0.3102    1.7301 C   0  0  0  0  0  0  0  0  0  0  0  0
   -1.2687   -0.5076    2.6364 O   0  0  0  0  0  0  0  0  0  0  0  0
   -1.2206    1.5493    1.8087 O   0  0  0  0  0  0  0  0  0  0  0  0
   -0.1299    0.8320   -0.6023 C   0  0  0  0  0  0  0  0  0  0  0  0
    0.3274    0.2815   -1.8964 N   0  0  0  0  0  0  0  0  0  0  0  0
    0.4013   -0.8547    0.6743 H   0  0  0  0  0  0  0  0  0  0  0  0
   -1.2394   -0.9308    0.0248 H   0  0  0  0  0  0  0  0  0  0  0  0
   -1.0140    1.4443   -0.7809 H   0  0  0  0  0  0  0  0  0  0  0  0
    0.6574    1.4677   -0.1984 H   0  0  0  0  0  0  0  0  0  0  0  0
   -0.3970   -0.3132   -2.3041 H   0  0  0  0  0  0  0  0  0  0  0  0
    1.1849   -0.2607   -1.7732 H   0  0  0  0  0  0  0  0  0  0  0  0
    0.5154    1.0954   -2.5553 H   0  0  0  0  0  0  0  0  0  0  0  0
    2.2743    3.2631    5.8500 O   0  0  0  0  0  0  0  0  0  0  0  0
    1.7955    2.4596    5.6242 H   0  0  0  0  0  0  0  0  0  0  0  0
    1.6229    3.9700    5.9015 H   0  0  0  0  0  0  0  0  0  0  0  0
    2.8506    3.6362   -2.2696 O   0  0  0  0  0  0  0  0  0  0  0  0
    2.9353    4.5899   -2.3546 H   0  0  0  0  0  0  0  0  0  0  0  0
    2.6517    3.4632   -1.3275 H   0  0  0  0  0  0  0  0  0  0  0  0
   -0.6135    3.9053    0.5684 O   0  0  0  0  0  0  0  0  0  0  0  0
   -0.8421    3.0305    0.9447 H   0  0  0  0  0  0  0  0  0  0  0  0
   -0.9781    4.5352    1.1998 H   0  0  0  0  0  0  0  0  0  0  0  0
   -2.1722    3.7830    3.1621 O   0  0  0  0  0  0  0  0  0  0  0  0
   -3.1245    3.6900    3.2538 H   0  0  0  0  0  0  0  0  0  0  0  0
   -1.8499    2.9154    2.8576 H   0  0  0  0  0  0  0  0  0  0  0  0
    0.7696    2.4318   -3.4422 O   0  0  0  0  0  0  0  0  0  0  0  0
    1.5561    2.8762   -3.0471 H   0  0  0  0  0  0  0  0  0  0  0  0
    0.9410    2.3479   -4.3843 H   0  0  0  0  0  0  0  0  0  0  0  0
   -1.5940    3.3542   -2.0691 O   0  0  0  0  0  0  0  0  0  0  0  0
   -1.2669    3.7017   -1.2239 H   0  0  0  0  0  0  0  0  0  0  0  0
   -0.8026    3.1954   -2.6100 H   0  0  0  0  0  0  0  0  0  0  0  0
    2.0401    3.2724    0.3117 O   0  0  0  0  0  0  0  0  0  0  0  0
    2.4794    3.4767    1.1404 H   0  0  0  0  0  0  0  0  0  0  0  0
    1.1239    3.6087    0.3871 H   0  0  0  0  0  0  0  0  0  0  0  0
  1  2  1  0  0  0  0
  2  3  2  0  0  0  0
  2  4  4  0  0  0  0
  1  5  1  0  0  0  0
  5  6  1  0  0  0  0
  1  7  1  0  0  0  0
  1  8  1  0  0  0  0
  5  9  1  0  0  0  0
  5 10  1  0  0  0  0
  6 11  1  0  0  0  0
  6 12  1  0  0  0  0
  6 13  1  0  0  0  0
 14 15  1  0  0  0  0
 14 16  1  0  0  0  0
 17 18  1  0  0  0  0
 17 19  1  0  0  0  0
 20 21  1  0  0  0  0
 20 22  1  0  0  0  0
 23 24  1  0  0  0  0
 23 25  1  0  0  0  0
 26 27  1  0  0  0  0
 26 28  1  0  0  0  0
 29 30  1  0  0  0  0
 29 31  1  0  0  0  0
 32 33  1  0  0  0  0
 32 34  1  0  0  0  0
M  END
