25
Coordinates from ORCA-job 02_Aminobutyric-acid_zwitterion
  N           0.57813603998673     -0.87981341735551      0.47970377328592
  C           1.13702266837286     -0.81745642227194     -0.91059984954827
  C           0.82241856845081      0.51879640451787     -1.56109598418075
  C           1.55856261250801      0.68378626141338     -2.88632982429372
  C           3.08298978154003      0.83879482690969     -2.77376448067692
  O           3.56050567000528      1.15080525842297     -1.64892700159557
  O           3.74088941642588      0.66477636593685     -3.83162056614123
  H           1.06469824295940     -0.18953728413942      1.09000156219219
  H          -0.42121904305153     -0.67386608868841      0.48605660940512
  H           0.70935228039790     -1.64764949028359     -1.47060510795931
  H           2.21017795653953     -0.96854252056668     -0.81413340844249
  H           1.11032312306640      1.32818759626592     -0.88835122481990
  H          -0.25643402438966      0.59352198434526     -1.72434731043151
  H           1.34917816868597     -0.15302274772907     -3.55729273674010
  H           1.19112973620014      1.57995149754856     -3.39449772905283
  H           0.70158737065765     -1.80516837714289      0.89115922983909
  O           2.19862868597523      0.90934743901309      1.92720679173590
  H           2.43629915145740      1.65226602654777      1.35557599692562
  O           6.43525524206956      1.19104674880963     -3.80529415219302
  H           6.59049800093998      1.26701419152410     -2.84725092721205
  H           1.85321242445128      1.31055059111625      2.73567433190351
  H           5.46746182693811      1.00117325459221     -3.84645203427002
  O           6.13907852398093      1.32290656856018     -0.95875812043516
  H           5.18264312878651      1.23834901012570     -1.22570853558110
  H           6.36868444704498      0.48071232252800     -0.54887930171314
