          37
  Built with Packmol                                             
  N            0.002605        0.268339        2.349498
  C            0.005610       -0.534268        1.127824
  C           -0.013605        0.360442       -0.117570
  C           -0.006580       -0.484114       -1.399583
  C            0.005309        0.346063       -2.655593
  O            0.015980        1.566588       -2.611145
  O            0.010136       -0.270580       -3.851920
  H            0.843830        0.889238        2.373417
  H           -0.867625        0.846216        2.397033
  H           -0.885896       -1.198618        1.124039
  H            0.917756       -1.170846        1.111005
  H            0.882890        1.016132       -0.103939
  H           -0.924881        0.997831       -0.099780
  H           -0.910028       -1.129127       -1.413513
  H            0.894287       -1.134110       -1.406828
  H            0.030211       -0.369186        3.177055
  O            2.708909        3.447697        0.723174
  H            2.606832        3.285115        1.694646
  H            2.044991        2.847074        0.299998
  O            0.326628        4.363407       -1.019155
  H            0.866725        3.620371       -1.389024
  H           -0.488950        3.925910       -0.666958
  O            2.353772        2.587236        4.211203
  H            1.959895        1.678691        4.215527
  H            1.866624        3.072232        4.923998
  O           -3.422744        3.286111       -0.199394
  H           -4.063665        2.576846        0.059011
  H           -2.928578        2.905704       -0.968617
  O           -1.970403        3.010982        1.441137
  H           -1.007095        2.907130        1.645743
  H           -2.288225        2.089081        1.268797
  O           -1.456970        3.413766       -3.456286
  H           -0.580692        3.634783       -3.051442
  H           -1.833905        2.714227       -2.865373
  O           -0.064093        3.590893        3.918920
  H           -0.857396        3.002664        3.846336
  H            0.526626        3.303321        3.177997
