          37
  Built with Packmol                                             
  N            0.002605        0.268339        2.349498
  C            0.005610       -0.534268        1.127824
  C           -0.013605        0.360442       -0.117570
  C           -0.006580       -0.484114       -1.399583
  C            0.005309        0.346063       -2.655593
  O            0.015980        1.566588       -2.611145
  O            0.010136       -0.270580       -3.851920
  H            0.843830        0.889238        2.373417
  H           -0.867625        0.846216        2.397033
  H           -0.885896       -1.198618        1.124039
  H            0.917756       -1.170846        1.111005
  H            0.882890        1.016132       -0.103939
  H           -0.924881        0.997831       -0.099780
  H           -0.910028       -1.129127       -1.413513
  H            0.894287       -1.134110       -1.406828
  H            0.030211       -0.369186        3.177055
  O           -0.198789        0.556941        7.763823
  H           -0.627708        1.147148        8.433370
  H            0.638043        1.026446        7.519098
  O           -0.659587        2.541838        5.844806
  H           -1.240655        2.751227        5.070772
  H           -0.233387        1.679647        5.609026
  O            1.900291        3.548596       -1.630452
  H            2.292156        2.639777       -1.597277
  H            1.216986        3.550462       -0.913720
  O           -1.239760        3.879779       -1.185838
  H           -1.028928        2.912610       -1.158560
  H           -0.793731        4.253626       -0.384645
  O           -2.259018        2.847773        2.553955
  H           -1.280611        2.996733        2.587721
  H           -2.441675        2.228076        3.304438
  O            1.936551        1.451937       -4.199831
  H            2.645390        1.775377       -3.588649
  H            2.107810        0.480441       -4.286314
  O            1.196220        3.563233        1.892225
  H            0.373828        3.885647        1.444642
  H            1.455887        2.755243        1.381990
