          37
  Built with Packmol                                             
  N            0.002605        0.268339        2.349498
  C            0.005610       -0.534268        1.127824
  C           -0.013605        0.360442       -0.117570
  C           -0.006580       -0.484114       -1.399583
  C            0.005309        0.346063       -2.655593
  O            0.015980        1.566588       -2.611145
  O            0.010136       -0.270580       -3.851920
  H            0.843830        0.889238        2.373417
  H           -0.867625        0.846216        2.397033
  H           -0.885896       -1.198618        1.124039
  H            0.917756       -1.170846        1.111005
  H            0.882890        1.016132       -0.103939
  H           -0.924881        0.997831       -0.099780
  H           -0.910028       -1.129127       -1.413513
  H            0.894287       -1.134110       -1.406828
  H            0.030211       -0.369186        3.177055
  O            0.698585       -2.734791        3.594599
  H            1.685861       -2.743889        3.670843
  H            0.384370       -3.250368        4.379495
  O           -1.358923       -2.451493        5.456740
  H           -0.762418       -1.661826        5.421835
  H           -2.032233       -2.285248        4.749894
  O            2.380604        1.722693        5.242994
  H            2.609356        0.825880        5.595145
  H            2.001268        2.205065        6.020191
  O           -1.654784       -3.260339        1.109130
  H           -1.280077       -3.196577        0.194723
  H           -2.517316       -2.776555        1.058094
  O            1.694554       -3.102092       -3.184270
  H            2.202094       -2.265643       -3.031407
  H            1.033227       -2.866876       -3.882792
  O           -1.866142       -2.520391       -3.037091
  H           -2.429069       -1.719290       -2.888899
  H           -1.007437       -2.161157       -3.375010
  O           -1.465579       -2.887873       -5.395343
  H           -1.681496       -3.708455       -4.884818
  H           -1.843880       -3.049359       -6.296134
