          37
  Built with Packmol                                             
  N            0.002605        0.268339        2.349498
  C            0.005610       -0.534268        1.127824
  C           -0.013605        0.360442       -0.117570
  C           -0.006580       -0.484114       -1.399583
  C            0.005309        0.346063       -2.655593
  O            0.015980        1.566588       -2.611145
  O            0.010136       -0.270580       -3.851920
  H            0.843830        0.889238        2.373417
  H           -0.867625        0.846216        2.397033
  H           -0.885896       -1.198618        1.124039
  H            0.917756       -1.170846        1.111005
  H            0.882890        1.016132       -0.103939
  H           -0.924881        0.997831       -0.099780
  H           -0.910028       -1.129127       -1.413513
  H            0.894287       -1.134110       -1.406828
  H            0.030211       -0.369186        3.177055
  O           -0.607111        3.220155        5.369685
  H           -0.317286        2.404102        5.849964
  H           -0.213553        3.966264        5.888382
  O           -1.679718       -3.169094        1.675797
  H           -1.422043       -4.029583        2.092657
  H           -1.969002       -2.602551        2.434716
  O            1.950146        2.299893        5.662797
  H            1.672594        1.569771        6.271482
  H            1.798620        3.128299        6.183755
  O            0.088539       -3.628438       -1.263603
  H            0.869629       -4.115686       -0.898776
  H            0.431191       -3.187063       -2.081154
  O            0.321891        3.313597        2.739396
  H           -0.074878        4.195364        2.525685
  H           -0.395710        2.828361        3.219198
  O           -2.157548        3.599164        2.141482
  H           -3.001782        3.106826        2.301119
  H           -1.684981        3.065073        1.454431
  O            1.205957       -3.284464        1.623642
  H            1.589064       -3.579347        2.487867
  H            1.935828       -3.422385        0.968754
