          37
  Built with Packmol                                             
  N            0.002605        0.268339        2.349498
  C            0.005610       -0.534268        1.127824
  C           -0.013605        0.360442       -0.117570
  C           -0.006580       -0.484114       -1.399583
  C            0.005309        0.346063       -2.655593
  O            0.015980        1.566588       -2.611145
  O            0.010136       -0.270580       -3.851920
  H            0.843830        0.889238        2.373417
  H           -0.867625        0.846216        2.397033
  H           -0.885896       -1.198618        1.124039
  H            0.917756       -1.170846        1.111005
  H            0.882890        1.016132       -0.103939
  H           -0.924881        0.997831       -0.099780
  H           -0.910028       -1.129127       -1.413513
  H            0.894287       -1.134110       -1.406828
  H            0.030211       -0.369186        3.177055
  O            1.821902       -3.591046        4.782489
  H            0.887429       -3.895786        4.662055
  H            1.889237       -3.372060        5.745882
  O            2.239846       -2.432531        2.328385
  H            1.868862       -3.348725        2.388126
  H            2.630047       -2.264054        3.222796
  O           -3.217545        2.177902       -3.347012
  H           -2.594811        2.276678       -2.583431
  H           -2.859943        1.410851       -3.861177
  O            0.082553       -3.453189       -1.396099
  H           -0.615889       -3.877146       -0.836590
  H            0.396893       -4.178566       -1.992448
  O            0.526897       -1.397958        5.695458
  H            0.009962       -2.234494        5.812064
  H            1.042579       -1.539118        4.861936
  O           -1.482358       -3.009538       -3.278488
  H           -1.144461       -2.120275       -3.553531
  H           -0.868277       -3.653535       -3.712983
  O            2.998776       -2.707293       -1.790366
  H            2.765497       -1.883567       -2.288028
  H            2.203216       -2.892665       -1.230602
