          37
  Built with Packmol                                             
  N            0.002605        0.268339        2.349498
  C            0.005610       -0.534268        1.127824
  C           -0.013605        0.360442       -0.117570
  C           -0.006580       -0.484114       -1.399583
  C            0.005309        0.346063       -2.655593
  O            0.015980        1.566588       -2.611145
  O            0.010136       -0.270580       -3.851920
  H            0.843830        0.889238        2.373417
  H           -0.867625        0.846216        2.397033
  H           -0.885896       -1.198618        1.124039
  H            0.917756       -1.170846        1.111005
  H            0.882890        1.016132       -0.103939
  H           -0.924881        0.997831       -0.099780
  H           -0.910028       -1.129127       -1.413513
  H            0.894287       -1.134110       -1.406828
  H            0.030211       -0.369186        3.177055
  O           -0.043136       -3.510751       -5.389553
  H            0.757951       -4.077411       -5.522844
  H            0.270791       -2.589926       -5.574336
  O            0.531826       -4.185040       -0.567425
  H            0.707838       -3.261287       -0.877765
  H            0.211936       -4.661224       -1.374601
  O           -2.565780       -2.362654        1.992764
  H           -2.197670       -3.210648        2.347745
  H           -3.105322       -2.635452        1.208488
  O           -0.626947       -3.256232        3.881249
  H           -0.887621       -4.208248        3.801709
  H           -0.568043       -3.095790        4.856648
  O           -1.053278       -2.332234       -3.833234
  H           -0.326616       -2.330386       -3.160500
  H           -1.862644       -2.588538       -3.323483
  O            2.154016       -3.088970        1.198937
  H            1.332104       -3.602068        1.403389
  H            2.503161       -3.500305        0.368567
  O            1.567352       -3.185045        4.005610
  H            2.120243       -3.788491        3.448138
  H            1.803197       -2.274836        3.694951
