          37
  Built with Packmol                                             
  N            0.002605        0.268339        2.349498
  C            0.005610       -0.534268        1.127824
  C           -0.013605        0.360442       -0.117570
  C           -0.006580       -0.484114       -1.399583
  C            0.005309        0.346063       -2.655593
  O            0.015980        1.566588       -2.611145
  O            0.010136       -0.270580       -3.851920
  H            0.843830        0.889238        2.373417
  H           -0.867625        0.846216        2.397033
  H           -0.885896       -1.198618        1.124039
  H            0.917756       -1.170846        1.111005
  H            0.882890        1.016132       -0.103939
  H           -0.924881        0.997831       -0.099780
  H           -0.910028       -1.129127       -1.413513
  H            0.894287       -1.134110       -1.406828
  H            0.030211       -0.369186        3.177055
  O            0.906238        3.996880        1.189147
  H            0.730632        3.025771        1.107165
  H            0.395369        4.274582        1.990713
  O           -2.943431        3.494345        2.185436
  H           -2.446880        2.637841        2.206626
  H           -2.574897        3.975467        1.402291
  O           -0.352951        3.485589        3.898014
  H           -0.426000        3.632972        4.874514
  H           -0.096129        2.533331        3.809356
  O           -0.361055        3.608214       -1.624820
  H            0.007819        4.447182       -1.249754
  H           -0.352277        2.972213       -0.865848
  O            2.788495        2.462750        0.578053
  H            2.795877        3.396301        0.247841
  H            3.597296        2.393808        1.145240
  O           -2.189578        2.397843        4.462135
  H           -2.578195        1.554976        4.116936
  H           -2.964652        2.900770        4.818418
  O            1.745012        3.311890        4.721723
  H            2.125187        2.397528        4.726240
  H            1.898855        3.639995        3.800153
