          37
  Built with Packmol                                             
  N            0.002605        0.268339        2.349498
  C            0.005610       -0.534268        1.127824
  C           -0.013605        0.360442       -0.117570
  C           -0.006580       -0.484114       -1.399583
  C            0.005309        0.346063       -2.655593
  O            0.015980        1.566588       -2.611145
  O            0.010136       -0.270580       -3.851920
  H            0.843830        0.889238        2.373417
  H           -0.867625        0.846216        2.397033
  H           -0.885896       -1.198618        1.124039
  H            0.917756       -1.170846        1.111005
  H            0.882890        1.016132       -0.103939
  H           -0.924881        0.997831       -0.099780
  H           -0.910028       -1.129127       -1.413513
  H            0.894287       -1.134110       -1.406828
  H            0.030211       -0.369186        3.177055
  O           -2.649143       -2.056645        2.198233
  H           -2.902387       -1.099881        2.231097
  H           -2.232591       -2.233429        3.079054
  O            1.596233        2.882592        3.795818
  H            1.171585        3.365830        3.042979
  H            0.926838        2.921222        4.524536
  O            0.461903       -2.477079       -6.176301
  H           -0.190299       -2.403071       -6.917763
  H           -0.066236       -2.827263       -5.415345
  O           -2.332399        1.206223        5.216513
  H           -3.003645        0.478341        5.231631
  H           -1.716715        0.960695        4.480808
  O           -1.407604       -2.729095       -3.512451
  H           -1.552413       -1.749521       -3.503666
  H           -0.797132       -2.896483       -2.750928
  O            3.243190       -1.064106        0.017928
  H            2.959372       -1.775217       -0.610069
  H            3.109134       -1.458495        0.916315
  O            2.133953       -2.061870       -3.366156
  H            2.602436       -1.282937       -2.973220
  H            1.968984       -2.665298       -2.598516
