          37
  Built with Packmol                                             
  N            0.002605        0.268339        2.349498
  C            0.005610       -0.534268        1.127824
  C           -0.013605        0.360442       -0.117570
  C           -0.006580       -0.484114       -1.399583
  C            0.005309        0.346063       -2.655593
  O            0.015980        1.566588       -2.611145
  O            0.010136       -0.270580       -3.851920
  H            0.843830        0.889238        2.373417
  H           -0.867625        0.846216        2.397033
  H           -0.885896       -1.198618        1.124039
  H            0.917756       -1.170846        1.111005
  H            0.882890        1.016132       -0.103939
  H           -0.924881        0.997831       -0.099780
  H           -0.910028       -1.129127       -1.413513
  H            0.894287       -1.134110       -1.406828
  H            0.030211       -0.369186        3.177055
  O            1.188996        1.333865        6.355458
  H            1.190407        1.508032        5.380638
  H            1.807275        0.569129        6.471749
  O            1.576916       -2.572934       -4.489384
  H            1.594676       -1.680058       -4.917248
  H            2.093919       -2.457455       -3.652733
  O           -1.251415       -2.389272        6.802978
  H           -1.663505       -1.490245        6.853394
  H           -0.555086       -2.382851        7.507037
  O            2.498499       -1.890306        3.501463
  H            2.334200       -1.568043        4.423289
  H            1.633625       -2.279729        3.216937
  O            1.069918        3.162089        1.056591
  H            2.030327        2.988715        1.224417
  H            1.061831        3.806898        0.305080
  O           -1.946299        0.062071       -6.636566
  H           -1.972702       -0.629008       -7.345313
  H           -2.099072        0.915010       -7.115908
  O            0.189900       -2.010139       -6.571518
  H           -0.144269       -1.156618       -6.196760
  H           -0.505284       -2.285008       -7.220963
