          37
  Built with Packmol                                             
  N            0.002605        0.268339        2.349498
  C            0.005610       -0.534268        1.127824
  C           -0.013605        0.360442       -0.117570
  C           -0.006580       -0.484114       -1.399583
  C            0.005309        0.346063       -2.655593
  O            0.015980        1.566588       -2.611145
  O            0.010136       -0.270580       -3.851920
  H            0.843830        0.889238        2.373417
  H           -0.867625        0.846216        2.397033
  H           -0.885896       -1.198618        1.124039
  H            0.917756       -1.170846        1.111005
  H            0.882890        1.016132       -0.103939
  H           -0.924881        0.997831       -0.099780
  H           -0.910028       -1.129127       -1.413513
  H            0.894287       -1.134110       -1.406828
  H            0.030211       -0.369186        3.177055
  O            2.067455       -3.396592        3.971767
  H            2.829661       -2.774848        4.086162
  H            1.422925       -2.898066        3.409035
  O           -2.832455       -3.822842       -2.564075
  H           -2.046849       -4.392138       -2.365741
  H           -2.505842       -3.175565       -3.238590
  O            0.262994       -3.604331       -2.811534
  H            0.373628       -4.099101       -1.960903
  H           -0.408941       -2.906290       -2.606949
  O            2.907650       -3.344505        0.670390
  H            2.756463       -4.323034        0.655088
  H            2.327980       -3.015321        1.402669
  O           -0.499710       -3.886480        2.820270
  H            0.083904       -4.677006        2.943048
  H           -1.090190       -3.888160        3.615219
  O            2.392325       -3.328617       -2.337154
  H            3.042759       -2.582122       -2.320099
  H            2.499755       -3.771424       -1.457953
  O            1.735960       -3.185055       -5.153091
  H            2.326915       -2.641546       -4.573452
  H            1.669261       -4.058023       -4.690391
