 xtb: 6.7.1 (edcfbbe)
          06092518063D

 37 29  0     0  0            999 V2000
    0.9706    0.4576    0.8926 N   0  0  0  0  0  0  0  0  0  0  0  0
    0.4414    1.3043   -0.1898 C   0  0  0  0  0  0  0  0  0  0  0  0
   -1.0734    1.1522   -0.3163 C   0  0  0  0  0  0  0  0  0  0  0  0
   -1.5494   -0.3094   -0.3167 C   0  0  0  0  0  0  0  0  0  0  0  0
   -0.6914   -1.2581   -1.1910 C   0  0  0  0  0  0  0  0  0  0  0  0
   -1.1247   -1.5834   -2.3116 O   0  0  0  0  0  0  0  0  0  0  0  0
    0.3910   -1.6563   -0.6864 O   0  0  0  0  0  0  0  0  0  0  0  0
    1.9675    0.6934    1.0767 H   0  0  0  0  0  0  0  0  0  0  0  0
    0.4338    0.6111    1.7688 H   0  0  0  0  0  0  0  0  0  0  0  0
    0.7039    2.3448    0.0068 H   0  0  0  0  0  0  0  0  0  0  0  0
    0.9070    0.9948   -1.1274 H   0  0  0  0  0  0  0  0  0  0  0  0
   -1.3901    1.6251   -1.2465 H   0  0  0  0  0  0  0  0  0  0  0  0
   -1.5753    1.6570    0.5102 H   0  0  0  0  0  0  0  0  0  0  0  0
   -1.5367   -0.7145    0.6966 H   0  0  0  0  0  0  0  0  0  0  0  0
   -2.5724   -0.3589   -0.6934 H   0  0  0  0  0  0  0  0  0  0  0  0
    0.8766   -0.5288    0.5629 H   0  0  0  0  0  0  0  0  0  0  0  0
   -3.4578    3.9161    3.8268 O   0  0  0  0  0  0  0  0  0  0  0  0
   -3.5860    4.8099    4.1564 H   0  0  0  0  0  0  0  0  0  0  0  0
   -2.5684    3.9048    3.4216 H   0  0  0  0  0  0  0  0  0  0  0  0
   -0.9376    3.7238    2.6348 O   0  0  0  0  0  0  0  0  0  0  0  0
   -0.9633    3.8056    1.6770 H   0  0  0  0  0  0  0  0  0  0  0  0
   -0.7030    2.7863    2.8250 H   0  0  0  0  0  0  0  0  0  0  0  0
    3.4251    1.5567    1.4731 O   0  0  0  0  0  0  0  0  0  0  0  0
    4.2665    1.3903    1.0430 H   0  0  0  0  0  0  0  0  0  0  0  0
    3.0990    2.4312    1.1524 H   0  0  0  0  0  0  0  0  0  0  0  0
    1.6364    4.4952    3.2849 O   0  0  0  0  0  0  0  0  0  0  0  0
    1.9416    3.6833    3.7273 H   0  0  0  0  0  0  0  0  0  0  0  0
    0.6687    4.3914    3.2027 H   0  0  0  0  0  0  0  0  0  0  0  0
    2.3408    3.9079    0.7698 O   0  0  0  0  0  0  0  0  0  0  0  0
    2.7989    4.6430    0.3581 H   0  0  0  0  0  0  0  0  0  0  0  0
    2.0980    4.2071    1.6819 H   0  0  0  0  0  0  0  0  0  0  0  0
    2.4168    1.8866    4.0146 O   0  0  0  0  0  0  0  0  0  0  0  0
    2.8753    1.7143    3.1677 H   0  0  0  0  0  0  0  0  0  0  0  0
    2.9509    1.4947    4.7092 H   0  0  0  0  0  0  0  0  0  0  0  0
   -0.1196    1.2294    3.3101 O   0  0  0  0  0  0  0  0  0  0  0  0
    0.7688    1.4692    3.6577 H   0  0  0  0  0  0  0  0  0  0  0  0
   -0.5918    0.7895    4.0201 H   0  0  0  0  0  0  0  0  0  0  0  0
  1  2  1  0  0  0  0
  2  3  1  0  0  0  0
  3  4  1  0  0  0  0
  4  5  1  0  0  0  0
  5  6  2  0  0  0  0
  5  7  4  0  0  0  0
  1  8  1  0  0  0  0
  1  9  1  0  0  0  0
  2 10  1  0  0  0  0
  2 11  1  0  0  0  0
  3 12  1  0  0  0  0
  3 13  1  0  0  0  0
  4 14  1  0  0  0  0
  4 15  1  0  0  0  0
  1 16  1  0  0  0  0
 17 18  1  0  0  0  0
 17 19  1  0  0  0  0
 20 21  1  0  0  0  0
 20 22  1  0  0  0  0
 23 24  1  0  0  0  0
 23 25  1  0  0  0  0
 26 27  1  0  0  0  0
 26 28  1  0  0  0  0
 29 30  1  0  0  0  0
 29 31  1  0  0  0  0
 32 33  1  0  0  0  0
 32 34  1  0  0  0  0
 35 36  1  0  0  0  0
 35 37  1  0  0  0  0
M  END
