 xtb: 6.7.1 (edcfbbe)
          06092518033D

 37 29  0     0  0            999 V2000
   -0.1354   -0.7214    2.1390 N   0  0  0  0  0  0  0  0  0  0  0  0
   -0.7601   -0.2458    0.8937 C   0  0  0  0  0  0  0  0  0  0  0  0
    0.1475    0.7438    0.1703 C   0  0  0  0  0  0  0  0  0  0  0  0
   -0.4490    1.1692   -1.1660 C   0  0  0  0  0  0  0  0  0  0  0  0
   -0.3976    0.0636   -2.2591 C   0  0  0  0  0  0  0  0  0  0  0  0
    0.1581   -1.0190   -1.9821 O   0  0  0  0  0  0  0  0  0  0  0  0
   -0.9222    0.3568   -3.3575 O   0  0  0  0  0  0  0  0  0  0  0  0
    0.7220   -1.2257    1.9167 H   0  0  0  0  0  0  0  0  0  0  0  0
    0.0926    0.0879    2.7730 H   0  0  0  0  0  0  0  0  0  0  0  0
   -1.7122    0.2287    1.1304 H   0  0  0  0  0  0  0  0  0  0  0  0
   -0.9486   -1.0855    0.2226 H   0  0  0  0  0  0  0  0  0  0  0  0
    1.1075    0.2684   -0.0422 H   0  0  0  0  0  0  0  0  0  0  0  0
    0.3134    1.6275    0.7881 H   0  0  0  0  0  0  0  0  0  0  0  0
   -1.4950    1.4679   -1.0694 H   0  0  0  0  0  0  0  0  0  0  0  0
    0.0949    2.0193   -1.5852 H   0  0  0  0  0  0  0  0  0  0  0  0
   -0.7982   -1.3533    2.6827 H   0  0  0  0  0  0  0  0  0  0  0  0
    2.7910    0.2445    6.8490 O   0  0  0  0  0  0  0  0  0  0  0  0
    3.5945   -0.2409    6.6427 H   0  0  0  0  0  0  0  0  0  0  0  0
    2.8011    1.0375    6.2735 H   0  0  0  0  0  0  0  0  0  0  0  0
    2.5748    2.3167    5.0669 O   0  0  0  0  0  0  0  0  0  0  0  0
    2.3786    3.2282    5.2985 H   0  0  0  0  0  0  0  0  0  0  0  0
    1.8076    1.9874    4.5567 H   0  0  0  0  0  0  0  0  0  0  0  0
    0.3141   -0.5968    6.0771 O   0  0  0  0  0  0  0  0  0  0  0  0
    1.1578   -0.3524    6.5043 H   0  0  0  0  0  0  0  0  0  0  0  0
    0.3721   -1.5402    5.8533 H   0  0  0  0  0  0  0  0  0  0  0  0
   -2.2987    0.0131    5.4090 O   0  0  0  0  0  0  0  0  0  0  0  0
   -2.9920    0.0447    6.0709 H   0  0  0  0  0  0  0  0  0  0  0  0
   -1.4596   -0.1375    5.8812 H   0  0  0  0  0  0  0  0  0  0  0  0
    0.0944   -3.3501    5.4669 O   0  0  0  0  0  0  0  0  0  0  0  0
   -0.3097   -3.8557    6.1785 H   0  0  0  0  0  0  0  0  0  0  0  0
    0.7743   -3.9061    5.0739 H   0  0  0  0  0  0  0  0  0  0  0  0
   -1.7677   -2.1087    3.7343 O   0  0  0  0  0  0  0  0  0  0  0  0
   -1.1732   -2.6045    4.3240 H   0  0  0  0  0  0  0  0  0  0  0  0
   -2.1041   -1.3638    4.2731 H   0  0  0  0  0  0  0  0  0  0  0  0
    0.2553    1.1733    4.0493 O   0  0  0  0  0  0  0  0  0  0  0  0
   -0.5953    1.6091    4.1641 H   0  0  0  0  0  0  0  0  0  0  0  0
    0.2953    0.5054    4.7782 H   0  0  0  0  0  0  0  0  0  0  0  0
  1  2  1  0  0  0  0
  2  3  1  0  0  0  0
  3  4  1  0  0  0  0
  4  5  1  0  0  0  0
  5  6  4  0  0  0  0
  5  7  4  0  0  0  0
  1  8  1  0  0  0  0
  1  9  1  0  0  0  0
  2 10  1  0  0  0  0
  2 11  1  0  0  0  0
  3 12  1  0  0  0  0
  3 13  1  0  0  0  0
  4 14  1  0  0  0  0
  4 15  1  0  0  0  0
  1 16  1  0  0  0  0
 17 18  1  0  0  0  0
 17 19  1  0  0  0  0
 20 21  1  0  0  0  0
 20 22  1  0  0  0  0
 23 24  1  0  0  0  0
 23 25  1  0  0  0  0
 26 27  1  0  0  0  0
 26 28  1  0  0  0  0
 29 30  1  0  0  0  0
 29 31  1  0  0  0  0
 32 33  1  0  0  0  0
 32 34  1  0  0  0  0
 35 36  1  0  0  0  0
 35 37  1  0  0  0  0
M  END
