 xtb: 6.7.1 (edcfbbe)
          06092518013D

 37 29  0     0  0            999 V2000
   -0.0763   -0.3619    2.0959 N   0  0  0  0  0  0  0  0  0  0  0  0
    0.5649   -0.6582    0.7991 C   0  0  0  0  0  0  0  0  0  0  0  0
   -0.0600    0.1632   -0.3216 C   0  0  0  0  0  0  0  0  0  0  0  0
    0.5850   -0.1407   -1.6681 C   0  0  0  0  0  0  0  0  0  0  0  0
    0.1328    0.8344   -2.7792 C   0  0  0  0  0  0  0  0  0  0  0  0
   -0.2267    1.9822   -2.4553 O   0  0  0  0  0  0  0  0  0  0  0  0
    0.1814    0.4061   -3.9624 O   0  0  0  0  0  0  0  0  0  0  0  0
   -0.1909    0.6455    2.2105 H   0  0  0  0  0  0  0  0  0  0  0  0
   -1.0191   -0.8223    2.1400 H   0  0  0  0  0  0  0  0  0  0  0  0
    0.4378   -1.7178    0.5820 H   0  0  0  0  0  0  0  0  0  0  0  0
    1.6307   -0.4388    0.8572 H   0  0  0  0  0  0  0  0  0  0  0  0
    0.0553    1.2352   -0.1421 H   0  0  0  0  0  0  0  0  0  0  0  0
   -1.1271   -0.0467   -0.4006 H   0  0  0  0  0  0  0  0  0  0  0  0
    0.3723   -1.1554   -2.0052 H   0  0  0  0  0  0  0  0  0  0  0  0
    1.6714   -0.0274   -1.6086 H   0  0  0  0  0  0  0  0  0  0  0  0
    0.5099   -0.7335    2.8782 H   0  0  0  0  0  0  0  0  0  0  0  0
   -2.4161   -1.7596    2.0432 O   0  0  0  0  0  0  0  0  0  0  0  0
   -2.0318   -2.4745    1.4971 H   0  0  0  0  0  0  0  0  0  0  0  0
   -3.2129   -1.4666    1.5960 H   0  0  0  0  0  0  0  0  0  0  0  0
    0.6469   -4.6496    2.3501 O   0  0  0  0  0  0  0  0  0  0  0  0
    0.2750   -4.2033    3.1427 H   0  0  0  0  0  0  0  0  0  0  0  0
    0.6986   -5.5848    2.5648 H   0  0  0  0  0  0  0  0  0  0  0  0
   -0.2101   -3.2984    4.5334 O   0  0  0  0  0  0  0  0  0  0  0  0
    0.4037   -2.5430    4.5097 H   0  0  0  0  0  0  0  0  0  0  0  0
   -0.3858   -3.4937    5.4561 H   0  0  0  0  0  0  0  0  0  0  0  0
    2.7464   -2.8459    2.0667 O   0  0  0  0  0  0  0  0  0  0  0  0
    2.0509   -3.5300    2.0488 H   0  0  0  0  0  0  0  0  0  0  0  0
    3.5440   -3.2443    1.7138 H   0  0  0  0  0  0  0  0  0  0  0  0
   -1.0834   -3.5791    0.4927 O   0  0  0  0  0  0  0  0  0  0  0  0
   -1.3693   -4.2443   -0.1364 H   0  0  0  0  0  0  0  0  0  0  0  0
   -0.4518   -4.0119    1.1019 H   0  0  0  0  0  0  0  0  0  0  0  0
    0.4102   -2.2428   -4.4901 O   0  0  0  0  0  0  0  0  0  0  0  0
    0.3314   -1.2794   -4.3074 H   0  0  0  0  0  0  0  0  0  0  0  0
    0.4312   -2.3166   -5.4491 H   0  0  0  0  0  0  0  0  0  0  0  0
    1.6618   -1.3092    4.0103 O   0  0  0  0  0  0  0  0  0  0  0  0
    2.1738   -1.8453    3.3711 H   0  0  0  0  0  0  0  0  0  0  0  0
    2.2830   -0.7302    4.4592 H   0  0  0  0  0  0  0  0  0  0  0  0
  1  2  1  0  0  0  0
  2  3  1  0  0  0  0
  3  4  1  0  0  0  0
  4  5  1  0  0  0  0
  5  6  2  0  0  0  0
  5  7  4  0  0  0  0
  1  8  1  0  0  0  0
  1  9  1  0  0  0  0
  2 10  1  0  0  0  0
  2 11  1  0  0  0  0
  3 12  1  0  0  0  0
  3 13  1  0  0  0  0
  4 14  1  0  0  0  0
  4 15  1  0  0  0  0
  1 16  1  0  0  0  0
 17 18  1  0  0  0  0
 17 19  1  0  0  0  0
 20 21  1  0  0  0  0
 20 22  1  0  0  0  0
 23 24  1  0  0  0  0
 23 25  1  0  0  0  0
 26 27  1  0  0  0  0
 26 28  1  0  0  0  0
 29 30  1  0  0  0  0
 29 31  1  0  0  0  0
 32 33  1  0  0  0  0
 32 34  1  0  0  0  0
 35 36  1  0  0  0  0
 35 37  1  0  0  0  0
M  END
