 xtb: 6.7.1 (edcfbbe)
          06092517593D

 34 26  0     0  0            999 V2000
    1.4676    0.9102   -0.6452 H   0  0  0  0  0  0  0  0  0  0  0  0
    0.6848    0.2560   -1.0340 C   0  0  0  0  0  0  0  0  0  0  0  0
    0.3442    1.2407   -2.8186 H   0  0  0  0  0  0  0  0  0  0  0  0
    1.1561   -0.5534   -1.5923 H   0  0  0  0  0  0  0  0  0  0  0  0
   -0.1858    0.9995   -1.9617 N   0  0  0  0  0  0  0  0  0  0  0  0
    0.4915   -1.1526    0.5789 H   0  0  0  0  0  0  0  0  0  0  0  0
   -0.1039   -0.3613    0.1240 C   0  0  0  0  0  0  0  0  0  0  0  0
   -1.4637    1.3362    1.1520 O   0  0  0  0  0  0  0  0  0  0  0  0
   -0.4301    0.6359    1.2455 C   0  0  0  0  0  0  0  0  0  0  0  0
   -0.5595    1.8721   -1.5387 H   0  0  0  0  0  0  0  0  0  0  0  0
    0.3708    0.7064    2.2091 O   0  0  0  0  0  0  0  0  0  0  0  0
   -1.0014    0.3996   -2.2247 H   0  0  0  0  0  0  0  0  0  0  0  0
   -1.0354   -0.7858   -0.2505 H   0  0  0  0  0  0  0  0  0  0  0  0
    2.8430    1.4978    1.2202 O   0  0  0  0  0  0  0  0  0  0  0  0
    3.5640    1.1199    1.7329 H   0  0  0  0  0  0  0  0  0  0  0  0
    2.0232    1.2378    1.6764 H   0  0  0  0  0  0  0  0  0  0  0  0
   -0.6405    1.0244    4.7203 O   0  0  0  0  0  0  0  0  0  0  0  0
   -0.2965    0.9840    3.8033 H   0  0  0  0  0  0  0  0  0  0  0  0
    0.1162    0.8475    5.2891 H   0  0  0  0  0  0  0  0  0  0  0  0
   -2.4247   -0.5453   -2.4012 O   0  0  0  0  0  0  0  0  0  0  0  0
   -2.9738   -0.0699   -1.7419 H   0  0  0  0  0  0  0  0  0  0  0  0
   -2.9458   -0.5988   -3.2070 H   0  0  0  0  0  0  0  0  0  0  0  0
    1.3589    1.4104   -4.2468 O   0  0  0  0  0  0  0  0  0  0  0  0
    1.1374    1.0328   -5.1028 H   0  0  0  0  0  0  0  0  0  0  0  0
    1.9713    2.1364   -4.3913 H   0  0  0  0  0  0  0  0  0  0  0  0
   -2.8978   -0.6413    4.9025 O   0  0  0  0  0  0  0  0  0  0  0  0
   -2.1159   -0.0609    4.8670 H   0  0  0  0  0  0  0  0  0  0  0  0
   -3.6347   -0.1088    4.5875 H   0  0  0  0  0  0  0  0  0  0  0  0
   -3.5981    1.0629   -0.5711 O   0  0  0  0  0  0  0  0  0  0  0  0
   -3.6550    1.9694   -0.8947 H   0  0  0  0  0  0  0  0  0  0  0  0
   -2.9210    1.0860    0.1326 H   0  0  0  0  0  0  0  0  0  0  0  0
   -1.2819    3.2761   -0.7396 O   0  0  0  0  0  0  0  0  0  0  0  0
   -0.8096    4.0746   -0.4900 H   0  0  0  0  0  0  0  0  0  0  0  0
   -1.4162    2.7574    0.0739 H   0  0  0  0  0  0  0  0  0  0  0  0
  1  2  1  0  0  0  0
  2  4  1  0  0  0  0
  2  5  1  0  0  0  0
  3  5  1  0  0  0  0
  2  7  1  0  0  0  0
  6  7  1  0  0  0  0
  7  9  1  0  0  0  0
  8  9  4  0  0  0  0
  5 10  1  0  0  0  0
  9 11  4  0  0  0  0
  5 12  1  0  0  0  0
  7 13  1  0  0  0  0
 14 15  1  0  0  0  0
 14 16  1  0  0  0  0
 17 18  1  0  0  0  0
 17 19  1  0  0  0  0
 20 21  1  0  0  0  0
 20 22  1  0  0  0  0
 23 24  1  0  0  0  0
 23 25  1  0  0  0  0
 26 27  1  0  0  0  0
 26 28  1  0  0  0  0
 29 30  1  0  0  0  0
 29 31  1  0  0  0  0
 32 33  1  0  0  0  0
 32 34  1  0  0  0  0
M  END
