 xtb: 6.7.1 (edcfbbe)
          06092518083D

 37 29  0     0  0            999 V2000
    0.3757   -1.1897    1.7829 N   0  0  0  0  0  0  0  0  0  0  0  0
    0.5230    0.2247    1.4176 C   0  0  0  0  0  0  0  0  0  0  0  0
   -0.3273    0.5635    0.1939 C   0  0  0  0  0  0  0  0  0  0  0  0
    0.2355    0.0334   -1.1341 C   0  0  0  0  0  0  0  0  0  0  0  0
   -0.1349   -1.4085   -1.5315 C   0  0  0  0  0  0  0  0  0  0  0  0
   -0.4924   -1.6177   -2.7005 O   0  0  0  0  0  0  0  0  0  0  0  0
   -0.0183   -2.3182   -0.6594 O   0  0  0  0  0  0  0  0  0  0  0  0
    1.1642   -1.5352    2.3913 H   0  0  0  0  0  0  0  0  0  0  0  0
   -0.5173   -1.3442    2.2754 H   0  0  0  0  0  0  0  0  0  0  0  0
    0.2145    0.8381    2.2652 H   0  0  0  0  0  0  0  0  0  0  0  0
    1.5720    0.4316    1.2009 H   0  0  0  0  0  0  0  0  0  0  0  0
   -0.3899    1.6488    0.1114 H   0  0  0  0  0  0  0  0  0  0  0  0
   -1.3410    0.1863    0.3342 H   0  0  0  0  0  0  0  0  0  0  0  0
    1.3281    0.0751   -1.1194 H   0  0  0  0  0  0  0  0  0  0  0  0
   -0.1045    0.6581   -1.9627 H   0  0  0  0  0  0  0  0  0  0  0  0
    0.3550   -1.7534    0.9050 H   0  0  0  0  0  0  0  0  0  0  0  0
    1.3548   -2.6643    5.8108 O   0  0  0  0  0  0  0  0  0  0  0  0
    1.9195   -2.4346    6.5545 H   0  0  0  0  0  0  0  0  0  0  0  0
    1.0449   -3.5648    5.9545 H   0  0  0  0  0  0  0  0  0  0  0  0
    1.3235   -4.5937    2.0513 O   0  0  0  0  0  0  0  0  0  0  0  0
    1.6060   -4.7391    1.1349 H   0  0  0  0  0  0  0  0  0  0  0  0
    0.3717   -4.4020    1.9707 H   0  0  0  0  0  0  0  0  0  0  0  0
   -2.1681   -1.9786    2.8607 O   0  0  0  0  0  0  0  0  0  0  0  0
   -3.0725   -1.7322    2.6558 H   0  0  0  0  0  0  0  0  0  0  0  0
   -1.9819   -2.8078    2.3820 H   0  0  0  0  0  0  0  0  0  0  0  0
    1.5183   -4.6287   -0.7392 O   0  0  0  0  0  0  0  0  0  0  0  0
    2.1959   -4.5895   -1.4186 H   0  0  0  0  0  0  0  0  0  0  0  0
    0.9688   -3.8295   -0.8431 H   0  0  0  0  0  0  0  0  0  0  0  0
   -0.4876   -0.6606    4.7728 O   0  0  0  0  0  0  0  0  0  0  0  0
   -1.1742   -1.1691    4.3176 H   0  0  0  0  0  0  0  0  0  0  0  0
    0.1115   -1.3174    5.1562 H   0  0  0  0  0  0  0  0  0  0  0  0
    2.3527   -2.3517    3.1959 O   0  0  0  0  0  0  0  0  0  0  0  0
    2.0739   -2.4016    4.1258 H   0  0  0  0  0  0  0  0  0  0  0  0
    2.1338   -3.2288    2.8132 H   0  0  0  0  0  0  0  0  0  0  0  0
   -1.2988   -3.9923    1.1923 O   0  0  0  0  0  0  0  0  0  0  0  0
   -0.9418   -3.4713    0.4526 H   0  0  0  0  0  0  0  0  0  0  0  0
   -1.7088   -4.7698    0.8051 H   0  0  0  0  0  0  0  0  0  0  0  0
  1  2  1  0  0  0  0
  2  3  1  0  0  0  0
  3  4  1  0  0  0  0
  4  5  1  0  0  0  0
  5  6  2  0  0  0  0
  5  7  4  0  0  0  0
  1  8  1  0  0  0  0
  1  9  1  0  0  0  0
  2 10  1  0  0  0  0
  2 11  1  0  0  0  0
  3 12  1  0  0  0  0
  3 13  1  0  0  0  0
  4 14  1  0  0  0  0
  4 15  1  0  0  0  0
  1 16  1  0  0  0  0
 17 18  1  0  0  0  0
 17 19  1  0  0  0  0
 20 21  1  0  0  0  0
 20 22  1  0  0  0  0
 23 24  1  0  0  0  0
 23 25  1  0  0  0  0
 26 27  1  0  0  0  0
 26 28  1  0  0  0  0
 29 30  1  0  0  0  0
 29 31  1  0  0  0  0
 32 33  1  0  0  0  0
 32 34  1  0  0  0  0
 35 36  1  0  0  0  0
 35 37  1  0  0  0  0
M  END
