 xtb: 6.7.1 (edcfbbe)
          06092517523D

 34 26  0     0  0            999 V2000
   -0.3535   -0.2660    0.7556 C   0  0  0  0  0  0  0  0  0  0  0  0
   -0.5898    0.4503    2.1085 C   0  0  0  0  0  0  0  0  0  0  0  0
    0.3844    0.5305    2.8991 O   0  0  0  0  0  0  0  0  0  0  0  0
   -1.7252    0.9085    2.3257 O   0  0  0  0  0  0  0  0  0  0  0  0
    0.1441    0.7419   -0.2717 C   0  0  0  0  0  0  0  0  0  0  0  0
    0.3113    0.1095   -1.5961 N   0  0  0  0  0  0  0  0  0  0  0  0
    0.3747   -1.0628    0.9028 H   0  0  0  0  0  0  0  0  0  0  0  0
   -1.3142   -0.6852    0.4535 H   0  0  0  0  0  0  0  0  0  0  0  0
   -0.5740    1.5602   -0.3449 H   0  0  0  0  0  0  0  0  0  0  0  0
    1.1023    1.1590    0.0437 H   0  0  0  0  0  0  0  0  0  0  0  0
   -0.5848   -0.2445   -1.9327 H   0  0  0  0  0  0  0  0  0  0  0  0
    0.9896   -0.6815   -1.5507 H   0  0  0  0  0  0  0  0  0  0  0  0
    0.7008    0.8067   -2.2851 H   0  0  0  0  0  0  0  0  0  0  0  0
    1.9340   -2.8832    1.9527 O   0  0  0  0  0  0  0  0  0  0  0  0
    1.6951   -3.2286    2.8156 H   0  0  0  0  0  0  0  0  0  0  0  0
    2.2760   -1.9757    2.0944 H   0  0  0  0  0  0  0  0  0  0  0  0
    1.5737    1.7407   -3.3523 O   0  0  0  0  0  0  0  0  0  0  0  0
    2.4527    1.4390   -3.0571 H   0  0  0  0  0  0  0  0  0  0  0  0
    1.5279    1.5911   -4.3015 H   0  0  0  0  0  0  0  0  0  0  0  0
    3.3093   -3.6303   -0.2807 O   0  0  0  0  0  0  0  0  0  0  0  0
    4.2279   -3.5346   -0.0124 H   0  0  0  0  0  0  0  0  0  0  0  0
    2.7750   -3.4945    0.5241 H   0  0  0  0  0  0  0  0  0  0  0  0
    2.8078   -0.3140    2.2833 O   0  0  0  0  0  0  0  0  0  0  0  0
    3.3579   -0.0807    3.0366 H   0  0  0  0  0  0  0  0  0  0  0  0
    1.9044    0.0413    2.4940 H   0  0  0  0  0  0  0  0  0  0  0  0
    3.2801    1.4922    0.1413 O   0  0  0  0  0  0  0  0  0  0  0  0
    3.5244    1.0619   -0.6981 H   0  0  0  0  0  0  0  0  0  0  0  0
    3.2293    0.7859    0.8068 H   0  0  0  0  0  0  0  0  0  0  0  0
    2.1641   -1.9236   -2.0269 O   0  0  0  0  0  0  0  0  0  0  0  0
    1.8768   -2.4871   -2.7518 H   0  0  0  0  0  0  0  0  0  0  0  0
    2.5664   -2.5235   -1.3645 H   0  0  0  0  0  0  0  0  0  0  0  0
    3.7268    0.2936   -2.3905 O   0  0  0  0  0  0  0  0  0  0  0  0
    4.5931    0.0604   -2.7326 H   0  0  0  0  0  0  0  0  0  0  0  0
    3.2283   -0.5438   -2.2800 H   0  0  0  0  0  0  0  0  0  0  0  0
  1  2  1  0  0  0  0
  2  3  4  0  0  0  0
  2  4  2  0  0  0  0
  1  5  1  0  0  0  0
  5  6  1  0  0  0  0
  1  7  1  0  0  0  0
  1  8  1  0  0  0  0
  5  9  1  0  0  0  0
  5 10  1  0  0  0  0
  6 11  1  0  0  0  0
  6 12  1  0  0  0  0
  6 13  1  0  0  0  0
 14 15  1  0  0  0  0
 14 16  1  0  0  0  0
 17 18  1  0  0  0  0
 17 19  1  0  0  0  0
 20 21  1  0  0  0  0
 20 22  1  0  0  0  0
 23 24  1  0  0  0  0
 23 25  1  0  0  0  0
 26 27  1  0  0  0  0
 26 28  1  0  0  0  0
 29 30  1  0  0  0  0
 29 31  1  0  0  0  0
 32 33  1  0  0  0  0
 32 34  1  0  0  0  0
M  END
