          34
  Built with Packmol                                             
  H            1.511317       -0.306828       -0.555014
  C            0.423564       -0.532721       -0.609717
  H            0.153518        0.482840       -2.377127
  H            0.306225       -1.519929       -1.108019
  N           -0.266872        0.473091       -1.420552
  H            0.312435       -1.513062        1.312585
  C           -0.165166       -0.646649        0.806799
  O            0.750464        1.631323        1.241066
  C            0.056943        0.562514        1.678499
  H           -0.170369        1.427689       -1.011410
  O           -0.378051        0.562370        2.818531
  H           -1.279945        0.228297       -1.503809
  H           -1.254063       -0.848936        0.728169
  O            1.031108        4.076571        3.728065
  H            0.099711        3.740298        3.722474
  H            1.328694        3.967332        4.666213
  O            3.017870        0.588563        3.975000
  H            3.652854        0.766760        4.713682
  H            3.531613        0.788856        3.152465
  O            0.966448        1.820935        4.354954
  H            0.917552        0.855942        4.571770
  H            1.301090        1.849267        3.423383
  O           -1.565487       -2.729368        2.481702
  H           -1.829220       -3.559157        2.953408
  H           -2.389485       -2.180378        2.465905
  O            1.965138       -3.581223        4.086704
  H            1.091626       -4.045855        4.045425
  H            2.244685       -3.493964        3.140737
  O            3.472256       -1.409781        3.146393
  H            2.756698       -1.358480        2.463782
  H            2.995555       -1.609887        3.990979
  O            0.821965       -1.289454        4.101113
  H            1.013437       -1.788615        4.934651
  H            0.597425       -1.990126        3.438351
