          37
  Built with Packmol                                             
  N            0.058148       -0.927583        1.469607
  C            0.211959        0.510020        1.257389
  C           -0.420296        1.026601       -0.053995
  C            0.232909        0.510995       -1.351786
  C           -0.125253       -0.896436       -1.755618
  O            0.432585       -1.420882       -2.861979
  O           -0.947959       -1.551103       -1.137172
  H            0.428548       -1.166868        2.416841
  H           -0.951876       -1.193831        1.431538
  H           -0.278739        1.044785        2.100148
  H            1.291996        0.772629        1.278823
  H           -0.263312        2.127518       -0.038280
  H           -1.516957        0.851348       -0.073370
  H            1.334639        0.617682       -1.263614
  H           -0.104560        1.158543       -2.189480
  H            0.618166       -1.463418        0.770947
  O            2.702442       -2.382179       -3.540197
  H            3.416754       -1.696602       -3.521396
  H            2.942934       -3.011023       -2.814021
  O            2.893900       -0.223979        5.938488
  H            2.169511       -0.877969        6.106319
  H            2.513603        0.645503        6.221310
  O            3.859297        0.582150        1.473611
  H            4.087682       -0.252785        1.954585
  H            3.692852        1.244144        2.191018
  O           -2.453443       -3.392581       -0.703641
  H           -3.413598       -3.151156       -0.724278
  H           -2.351454       -4.066044       -1.422431
  O           -2.747380       -2.543691        3.046059
  H           -2.300779       -3.406109        3.239431
  H           -3.424676       -2.763828        2.358002
  O            1.205533       -4.939402       -1.993931
  H            1.236414       -4.605667       -2.925745
  H            2.113392       -4.766488       -1.638253
  O           -3.111145       -0.318776        4.079928
  H           -3.109596        0.670759        4.042113
  H           -3.718576       -0.594080        3.347912
