 xtb: 6.7.1 (edcfbbe)
          06092518073D

 37 29  0     0  0            999 V2000
   -0.2818   -1.2788    1.4736 N   0  0  0  0  0  0  0  0  0  0  0  0
   -0.0286    0.1638    1.6751 C   0  0  0  0  0  0  0  0  0  0  0  0
   -0.7539    0.9842    0.6131 C   0  0  0  0  0  0  0  0  0  0  0  0
   -0.0822    0.9276   -0.7655 C   0  0  0  0  0  0  0  0  0  0  0  0
   -0.5318   -0.2204   -1.6861 C   0  0  0  0  0  0  0  0  0  0  0  0
   -0.5596   -0.0111   -2.9095 O   0  0  0  0  0  0  0  0  0  0  0  0
   -0.8348   -1.3275   -1.1533 O   0  0  0  0  0  0  0  0  0  0  0  0
    0.4703   -1.8512    1.8520 H   0  0  0  0  0  0  0  0  0  0  0  0
   -1.1849   -1.5536    1.9183 H   0  0  0  0  0  0  0  0  0  0  0  0
   -0.3871    0.4477    2.6651 H   0  0  0  0  0  0  0  0  0  0  0  0
    1.0416    0.3592    1.6040 H   0  0  0  0  0  0  0  0  0  0  0  0
   -0.7684    2.0245    0.9363 H   0  0  0  0  0  0  0  0  0  0  0  0
   -1.7888    0.6480    0.5296 H   0  0  0  0  0  0  0  0  0  0  0  0
    1.0008    0.8301   -0.6503 H   0  0  0  0  0  0  0  0  0  0  0  0
   -0.2660    1.8458   -1.3265 H   0  0  0  0  0  0  0  0  0  0  0  0
   -0.3924   -1.4438    0.4367 H   0  0  0  0  0  0  0  0  0  0  0  0
    3.0167   -3.6319   -3.8479 O   0  0  0  0  0  0  0  0  0  0  0  0
    2.1628   -3.5428   -4.2822 H   0  0  0  0  0  0  0  0  0  0  0  0
    3.3329   -2.7422   -3.6640 H   0  0  0  0  0  0  0  0  0  0  0  0
    2.8296   -1.1902    5.8961 O   0  0  0  0  0  0  0  0  0  0  0  0
    1.9711   -1.4995    6.2028 H   0  0  0  0  0  0  0  0  0  0  0  0
    2.7816   -0.2298    5.8548 H   0  0  0  0  0  0  0  0  0  0  0  0
    3.2298    0.6969    0.9538 O   0  0  0  0  0  0  0  0  0  0  0  0
    3.9394    0.0467    0.9612 H   0  0  0  0  0  0  0  0  0  0  0  0
    3.6310    1.5479    1.1541 H   0  0  0  0  0  0  0  0  0  0  0  0
   -3.3625   -1.8089   -0.2209 O   0  0  0  0  0  0  0  0  0  0  0  0
   -3.8561   -2.3788   -0.8162 H   0  0  0  0  0  0  0  0  0  0  0  0
   -2.4893   -1.6704   -0.6360 H   0  0  0  0  0  0  0  0  0  0  0  0
   -2.7706   -2.0441    2.4362 O   0  0  0  0  0  0  0  0  0  0  0  0
   -2.8930   -2.9721    2.6580 H   0  0  0  0  0  0  0  0  0  0  0  0
   -3.1536   -1.9175    1.5466 H   0  0  0  0  0  0  0  0  0  0  0  0
    3.8278   -5.9469   -2.3409 O   0  0  0  0  0  0  0  0  0  0  0  0
    3.6503   -5.1935   -2.9250 H   0  0  0  0  0  0  0  0  0  0  0  0
    3.0378   -6.0548   -1.8016 H   0  0  0  0  0  0  0  0  0  0  0  0
   -2.0742    0.1049    4.2140 O   0  0  0  0  0  0  0  0  0  0  0  0
   -2.8143    0.6705    4.4468 H   0  0  0  0  0  0  0  0  0  0  0  0
   -2.4461   -0.6377    3.7127 H   0  0  0  0  0  0  0  0  0  0  0  0
  1  2  1  0  0  0  0
  2  3  1  0  0  0  0
  3  4  1  0  0  0  0
  4  5  1  0  0  0  0
  5  6  2  0  0  0  0
  5  7  4  0  0  0  0
  1  8  1  0  0  0  0
  1  9  1  0  0  0  0
  2 10  1  0  0  0  0
  2 11  1  0  0  0  0
  3 12  1  0  0  0  0
  3 13  1  0  0  0  0
  4 14  1  0  0  0  0
  4 15  1  0  0  0  0
  1 16  1  0  0  0  0
 17 18  1  0  0  0  0
 17 19  1  0  0  0  0
 20 21  1  0  0  0  0
 20 22  1  0  0  0  0
 23 24  1  0  0  0  0
 23 25  1  0  0  0  0
 26 27  1  0  0  0  0
 26 28  1  0  0  0  0
 29 30  1  0  0  0  0
 29 31  1  0  0  0  0
 32 33  1  0  0  0  0
 32 34  1  0  0  0  0
 35 36  1  0  0  0  0
 35 37  1  0  0  0  0
M  END
