          37
  Built with Packmol                                             
  N            0.002605        0.268339        2.349498
  C            0.005610       -0.534268        1.127824
  C           -0.013605        0.360442       -0.117570
  C           -0.006580       -0.484114       -1.399583
  C            0.005309        0.346063       -2.655593
  O            0.015980        1.566588       -2.611145
  O            0.010136       -0.270580       -3.851920
  H            0.843830        0.889238        2.373417
  H           -0.867625        0.846216        2.397033
  H           -0.885896       -1.198618        1.124039
  H            0.917756       -1.170846        1.111005
  H            0.882890        1.016132       -0.103939
  H           -0.924881        0.997831       -0.099780
  H           -0.910028       -1.129127       -1.413513
  H            0.894287       -1.134110       -1.406828
  H            0.030211       -0.369186        3.177055
  O           -2.054713       -3.920140       -2.798291
  H           -1.084455       -4.117649       -2.784150
  H           -2.151121       -3.197838       -3.468812
  O            1.421876       -1.508415       -5.068376
  H            1.751689       -2.386668       -5.385402
  H            1.185973       -1.018514       -5.896000
  O            0.842741       -3.118447       -3.498526
  H            0.115740       -2.449573       -3.566988
  H            0.604310       -3.812914       -4.162965
  O           -2.761109       -2.551756       -5.704092
  H           -1.789355       -2.497248       -5.521517
  H           -3.174645       -1.961599       -5.024890
  O           -1.064798       -0.042166       -5.875303
  H           -1.195784       -0.683197       -6.618628
  H           -1.730088       -0.313268       -5.193756
  O            0.169388       -2.702224       -6.876874
  H            0.041205       -3.466282       -6.260112
  H           -0.667455       -2.666691       -7.405119
  O           -3.079966       -0.311468       -3.441573
  H           -2.491472       -1.051552       -3.147360
  H           -3.600818       -0.072604       -2.633941
