 xtb: 6.7.1 (edcfbbe)
          06092518053D

 37 29  0     0  0            999 V2000
   -1.0598    0.2664    0.9231 N   0  0  0  0  0  0  0  0  0  0  0  0
   -0.0185    0.9187    0.1144 C   0  0  0  0  0  0  0  0  0  0  0  0
   -0.3289    0.7732   -1.3732 C   0  0  0  0  0  0  0  0  0  0  0  0
   -0.7181   -0.6543   -1.7869 C   0  0  0  0  0  0  0  0  0  0  0  0
    0.1828   -1.7584   -1.1842 C   0  0  0  0  0  0  0  0  0  0  0  0
    1.0623   -2.2653   -1.9078 O   0  0  0  0  0  0  0  0  0  0  0  0
   -0.0505   -2.0888    0.0079 O   0  0  0  0  0  0  0  0  0  0  0  0
   -0.9842    0.5014    1.9331 H   0  0  0  0  0  0  0  0  0  0  0  0
   -2.0170    0.5608    0.5962 H   0  0  0  0  0  0  0  0  0  0  0  0
    0.0406    1.9762    0.3726 H   0  0  0  0  0  0  0  0  0  0  0  0
    0.9392    0.4424    0.3337 H   0  0  0  0  0  0  0  0  0  0  0  0
    0.5466    1.0863   -1.9412 H   0  0  0  0  0  0  0  0  0  0  0  0
   -1.1570    1.4320   -1.6353 H   0  0  0  0  0  0  0  0  0  0  0  0
   -1.7419   -0.8710   -1.4752 H   0  0  0  0  0  0  0  0  0  0  0  0
   -0.6607   -0.7480   -2.8727 H   0  0  0  0  0  0  0  0  0  0  0  0
   -0.9315   -0.7577    0.7800 H   0  0  0  0  0  0  0  0  0  0  0  0
   -1.4269    0.9689    3.5766 O   0  0  0  0  0  0  0  0  0  0  0  0
   -2.2457    1.4632    3.3926 H   0  0  0  0  0  0  0  0  0  0  0  0
   -1.6686    0.2304    4.1417 H   0  0  0  0  0  0  0  0  0  0  0  0
    1.0077    4.0935    0.9977 O   0  0  0  0  0  0  0  0  0  0  0  0
    0.7125    4.5737    1.7780 H   0  0  0  0  0  0  0  0  0  0  0  0
    1.9687    4.0869    1.0188 H   0  0  0  0  0  0  0  0  0  0  0  0
   -3.7877    2.3793    2.8584 O   0  0  0  0  0  0  0  0  0  0  0  0
   -4.6236    2.2025    3.3009 H   0  0  0  0  0  0  0  0  0  0  0  0
   -3.6852    3.3355    2.8085 H   0  0  0  0  0  0  0  0  0  0  0  0
   -2.8489    3.3000   -1.4458 O   0  0  0  0  0  0  0  0  0  0  0  0
   -3.2461    3.5854   -2.2715 H   0  0  0  0  0  0  0  0  0  0  0  0
   -1.9707    3.7351   -1.3984 H   0  0  0  0  0  0  0  0  0  0  0  0
   -0.3553    4.4086   -1.4502 O   0  0  0  0  0  0  0  0  0  0  0  0
    0.2198    3.9582   -2.0893 H   0  0  0  0  0  0  0  0  0  0  0  0
    0.0985    4.3267   -0.5936 H   0  0  0  0  0  0  0  0  0  0  0  0
    1.4047    3.1446   -3.3135 O   0  0  0  0  0  0  0  0  0  0  0  0
    2.3549    3.2965   -3.3154 H   0  0  0  0  0  0  0  0  0  0  0  0
    1.1258    3.0934   -4.2325 H   0  0  0  0  0  0  0  0  0  0  0  0
   -3.5154    1.2262    0.2813 O   0  0  0  0  0  0  0  0  0  0  0  0
   -3.3531    1.9513   -0.3478 H   0  0  0  0  0  0  0  0  0  0  0  0
   -3.6868    1.6511    1.1407 H   0  0  0  0  0  0  0  0  0  0  0  0
  1  2  1  0  0  0  0
  2  3  1  0  0  0  0
  3  4  1  0  0  0  0
  4  5  1  0  0  0  0
  5  6  2  0  0  0  0
  5  7  4  0  0  0  0
  1  8  1  0  0  0  0
  1  9  1  0  0  0  0
  2 10  1  0  0  0  0
  2 11  1  0  0  0  0
  3 12  1  0  0  0  0
  3 13  1  0  0  0  0
  4 14  1  0  0  0  0
  4 15  1  0  0  0  0
  1 16  1  0  0  0  0
 17 18  1  0  0  0  0
 17 19  1  0  0  0  0
 20 21  1  0  0  0  0
 20 22  1  0  0  0  0
 23 24  1  0  0  0  0
 23 25  1  0  0  0  0
 26 27  1  0  0  0  0
 26 28  1  0  0  0  0
 29 30  1  0  0  0  0
 29 31  1  0  0  0  0
 32 33  1  0  0  0  0
 32 34  1  0  0  0  0
 35 36  1  0  0  0  0
 35 37  1  0  0  0  0
M  END
