 xtb: 6.7.1 (edcfbbe)
          06092517583D

 34 26  0     0  0            999 V2000
    0.8844    0.2896   -1.8739 H   0  0  0  0  0  0  0  0  0  0  0  0
   -0.1279    0.0311   -1.5589 C   0  0  0  0  0  0  0  0  0  0  0  0
   -0.8602    1.8645   -2.3605 H   0  0  0  0  0  0  0  0  0  0  0  0
   -0.5644   -0.6632   -2.2777 H   0  0  0  0  0  0  0  0  0  0  0  0
   -0.9145    1.2689   -1.4971 N   0  0  0  0  0  0  0  0  0  0  0  0
    0.5075   -1.5393   -0.1989 H   0  0  0  0  0  0  0  0  0  0  0  0
   -0.0774   -0.6205   -0.1785 C   0  0  0  0  0  0  0  0  0  0  0  0
    0.2602    1.5088    0.8951 O   0  0  0  0  0  0  0  0  0  0  0  0
    0.5347    0.2827    0.9282 C   0  0  0  0  0  0  0  0  0  0  0  0
   -0.5213    1.7851   -0.6824 H   0  0  0  0  0  0  0  0  0  0  0  0
    1.2328   -0.2715    1.7957 O   0  0  0  0  0  0  0  0  0  0  0  0
   -1.9116    1.1071   -1.2928 H   0  0  0  0  0  0  0  0  0  0  0  0
   -1.0854   -0.8728    0.1599 H   0  0  0  0  0  0  0  0  0  0  0  0
    1.9313    2.4516   -2.4342 O   0  0  0  0  0  0  0  0  0  0  0  0
    2.8157    2.6738   -2.1368 H   0  0  0  0  0  0  0  0  0  0  0  0
    1.3335    3.1112   -2.0330 H   0  0  0  0  0  0  0  0  0  0  0  0
   -1.6371    3.5835    0.4541 O   0  0  0  0  0  0  0  0  0  0  0  0
   -1.0723    3.9970   -0.2290 H   0  0  0  0  0  0  0  0  0  0  0  0
   -1.0410    2.9906    0.9330 H   0  0  0  0  0  0  0  0  0  0  0  0
   -3.8557    2.7392   -3.3706 O   0  0  0  0  0  0  0  0  0  0  0  0
   -4.3641    3.5543   -3.3493 H   0  0  0  0  0  0  0  0  0  0  0  0
   -3.8094    2.4245   -2.4468 H   0  0  0  0  0  0  0  0  0  0  0  0
   -1.1636    2.9890   -3.5786 O   0  0  0  0  0  0  0  0  0  0  0  0
   -0.6520    2.7308   -4.3608 H   0  0  0  0  0  0  0  0  0  0  0  0
   -2.1189    2.8745   -3.7494 H   0  0  0  0  0  0  0  0  0  0  0  0
   -3.5041    1.9857   -0.7097 O   0  0  0  0  0  0  0  0  0  0  0  0
   -2.9275    2.6505   -0.2676 H   0  0  0  0  0  0  0  0  0  0  0  0
   -4.1867    1.7514   -0.0777 H   0  0  0  0  0  0  0  0  0  0  0  0
    0.9946    2.1367   -5.0483 O   0  0  0  0  0  0  0  0  0  0  0  0
    1.4284    2.2398   -4.1791 H   0  0  0  0  0  0  0  0  0  0  0  0
    1.2944    1.2968   -5.4042 H   0  0  0  0  0  0  0  0  0  0  0  0
    0.0429    4.3891   -1.6222 O   0  0  0  0  0  0  0  0  0  0  0  0
   -0.4753    4.0322   -2.3760 H   0  0  0  0  0  0  0  0  0  0  0  0
    0.2290    5.3077   -1.8309 H   0  0  0  0  0  0  0  0  0  0  0  0
  1  2  1  0  0  0  0
  2  4  1  0  0  0  0
  2  5  1  0  0  0  0
  3  5  1  0  0  0  0
  2  7  1  0  0  0  0
  6  7  1  0  0  0  0
  7  9  1  0  0  0  0
  8  9  4  0  0  0  0
  5 10  1  0  0  0  0
  9 11  2  0  0  0  0
  5 12  1  0  0  0  0
  7 13  1  0  0  0  0
 14 15  1  0  0  0  0
 14 16  1  0  0  0  0
 17 18  1  0  0  0  0
 17 19  1  0  0  0  0
 20 21  1  0  0  0  0
 20 22  1  0  0  0  0
 23 24  1  0  0  0  0
 23 25  1  0  0  0  0
 26 27  1  0  0  0  0
 26 28  1  0  0  0  0
 29 30  1  0  0  0  0
 29 31  1  0  0  0  0
 32 33  1  0  0  0  0
 32 34  1  0  0  0  0
M  END
