 xtb: 6.7.1 (edcfbbe)
          06092517533D

 34 26  0     0  0            999 V2000
   -0.6737   -0.1188    0.5394 C   0  0  0  0  0  0  0  0  0  0  0  0
   -0.6943    0.8718    1.7322 C   0  0  0  0  0  0  0  0  0  0  0  0
   -1.7134    0.8717    2.4506 O   0  0  0  0  0  0  0  0  0  0  0  0
    0.3144    1.5966    1.9106 O   0  0  0  0  0  0  0  0  0  0  0  0
   -0.0408    0.4735   -0.7087 C   0  0  0  0  0  0  0  0  0  0  0  0
    0.1229   -0.5602   -1.7486 N   0  0  0  0  0  0  0  0  0  0  0  0
   -0.1086   -0.9871    0.8821 H   0  0  0  0  0  0  0  0  0  0  0  0
   -1.7057   -0.4221    0.3664 H   0  0  0  0  0  0  0  0  0  0  0  0
   -0.6755    1.2766   -1.0852 H   0  0  0  0  0  0  0  0  0  0  0  0
    0.9320    0.8918   -0.4507 H   0  0  0  0  0  0  0  0  0  0  0  0
   -0.7756   -1.0647   -1.9205 H   0  0  0  0  0  0  0  0  0  0  0  0
    0.8057   -1.2938   -1.4475 H   0  0  0  0  0  0  0  0  0  0  0  0
    0.4505   -0.1544   -2.6256 H   0  0  0  0  0  0  0  0  0  0  0  0
   -2.6715    2.2523   -4.3827 O   0  0  0  0  0  0  0  0  0  0  0  0
   -2.0633    2.7334   -4.9536 H   0  0  0  0  0  0  0  0  0  0  0  0
   -3.2969    2.8935   -4.0330 H   0  0  0  0  0  0  0  0  0  0  0  0
    2.7858    3.6091   -4.0863 O   0  0  0  0  0  0  0  0  0  0  0  0
    3.4955    3.1584   -3.6165 H   0  0  0  0  0  0  0  0  0  0  0  0
    2.2655    4.0754   -3.4248 H   0  0  0  0  0  0  0  0  0  0  0  0
    0.3348   -3.2007   -3.6562 O   0  0  0  0  0  0  0  0  0  0  0  0
    0.9480   -3.1328   -2.9036 H   0  0  0  0  0  0  0  0  0  0  0  0
    0.5100   -4.0436   -4.0813 H   0  0  0  0  0  0  0  0  0  0  0  0
    2.8113    1.5143    0.8259 O   0  0  0  0  0  0  0  0  0  0  0  0
    1.9426    1.5460    1.2774 H   0  0  0  0  0  0  0  0  0  0  0  0
    3.3701    2.1387    1.2964 H   0  0  0  0  0  0  0  0  0  0  0  0
    1.5947   -2.8103   -1.1664 O   0  0  0  0  0  0  0  0  0  0  0  0
    0.8398   -3.1840   -0.6631 H   0  0  0  0  0  0  0  0  0  0  0  0
    2.3745   -2.8755   -0.6108 H   0  0  0  0  0  0  0  0  0  0  0  0
   -0.7520   -3.5620   -0.0554 O   0  0  0  0  0  0  0  0  0  0  0  0
   -1.3204   -3.1733   -0.7429 H   0  0  0  0  0  0  0  0  0  0  0  0
   -1.1362   -4.4109    0.1774 H   0  0  0  0  0  0  0  0  0  0  0  0
   -1.8797   -2.3557   -2.3409 O   0  0  0  0  0  0  0  0  0  0  0  0
   -1.1992   -2.7378   -2.9391 H   0  0  0  0  0  0  0  0  0  0  0  0
   -2.6670   -2.2010   -2.8681 H   0  0  0  0  0  0  0  0  0  0  0  0
  1  2  1  0  0  0  0
  2  3  2  0  0  0  0
  2  4  4  0  0  0  0
  1  5  1  0  0  0  0
  5  6  1  0  0  0  0
  1  7  1  0  0  0  0
  1  8  1  0  0  0  0
  5  9  1  0  0  0  0
  5 10  1  0  0  0  0
  6 11  1  0  0  0  0
  6 12  1  0  0  0  0
  6 13  1  0  0  0  0
 14 15  1  0  0  0  0
 14 16  1  0  0  0  0
 17 18  1  0  0  0  0
 17 19  1  0  0  0  0
 20 21  1  0  0  0  0
 20 22  1  0  0  0  0
 23 24  1  0  0  0  0
 23 25  1  0  0  0  0
 26 27  1  0  0  0  0
 26 28  1  0  0  0  0
 29 30  1  0  0  0  0
 29 31  1  0  0  0  0
 32 33  1  0  0  0  0
 32 34  1  0  0  0  0
M  END
