 xtb: 6.7.1 (edcfbbe)
          06112502043D

166115  0     0  0            999 V2000
   -0.3196   -0.9468    1.3623 N   0  0  0  0  0  0  0  0  0  0  0  0
   -0.1666    0.0458    0.2865 C   0  0  0  0  0  0  0  0  0  0  0  0
   -1.2923   -0.0352   -0.7364 C   0  0  0  0  0  0  0  0  0  0  0  0
   -1.1066   -1.1334   -1.7825 C   0  0  0  0  0  0  0  0  0  0  0  0
   -1.3145   -2.5605   -1.3426 C   0  0  0  0  0  0  0  0  0  0  0  0
   -0.4698   -3.4177   -1.7344 O   0  0  0  0  0  0  0  0  0  0  0  0
   -2.3186   -2.8780   -0.6493 O   0  0  0  0  0  0  0  0  0  0  0  0
    0.2785   -0.7086    2.1830 H   0  0  0  0  0  0  0  0  0  0  0  0
   -1.3078   -0.9575    1.6720 H   0  0  0  0  0  0  0  0  0  0  0  0
   -0.1803    1.0310    0.7499 H   0  0  0  0  0  0  0  0  0  0  0  0
    0.7910   -0.1052   -0.2062 H   0  0  0  0  0  0  0  0  0  0  0  0
   -1.3381    0.9044   -1.2788 H   0  0  0  0  0  0  0  0  0  0  0  0
   -2.2507   -0.1658   -0.2397 H   0  0  0  0  0  0  0  0  0  0  0  0
   -0.1273   -1.0569   -2.2502 H   0  0  0  0  0  0  0  0  0  0  0  0
   -1.8635   -0.9953   -2.5611 H   0  0  0  0  0  0  0  0  0  0  0  0
   -0.0807   -1.9059    1.0742 H   0  0  0  0  0  0  0  0  0  0  0  0
   -3.7060   -0.2257   -3.3776 O   0  0  0  0  0  0  0  0  0  0  0  0
   -3.2775    0.4932   -3.8762 H   0  0  0  0  0  0  0  0  0  0  0  0
   -4.2647    0.2383   -2.7167 H   0  0  0  0  0  0  0  0  0  0  0  0
    1.9162    1.3561   -6.5756 O   0  0  0  0  0  0  0  0  0  0  0  0
    1.1506    0.9928   -6.0545 H   0  0  0  0  0  0  0  0  0  0  0  0
    1.9482    0.8520   -7.3901 H   0  0  0  0  0  0  0  0  0  0  0  0
    0.4725    2.1272    7.1395 O   0  0  0  0  0  0  0  0  0  0  0  0
   -0.2139    2.5614    6.5573 H   0  0  0  0  0  0  0  0  0  0  0  0
    0.3295    2.4823    8.0183 H   0  0  0  0  0  0  0  0  0  0  0  0
   -0.7831    5.1728   -3.2055 O   0  0  0  0  0  0  0  0  0  0  0  0
   -1.0340    5.2784   -4.1300 H   0  0  0  0  0  0  0  0  0  0  0  0
   -0.6572    4.1924   -3.1165 H   0  0  0  0  0  0  0  0  0  0  0  0
    1.1064   -6.1963   -3.8088 O   0  0  0  0  0  0  0  0  0  0  0  0
    1.3047   -5.2442   -3.9230 H   0  0  0  0  0  0  0  0  0  0  0  0
    1.7308   -6.5224   -3.1540 H   0  0  0  0  0  0  0  0  0  0  0  0
    2.5691    4.9973    4.0931 O   0  0  0  0  0  0  0  0  0  0  0  0
    2.8950    4.6174    3.2555 H   0  0  0  0  0  0  0  0  0  0  0  0
    2.7327    4.3110    4.7742 H   0  0  0  0  0  0  0  0  0  0  0  0
    3.7826    1.3998    0.9540 O   0  0  0  0  0  0  0  0  0  0  0  0
    4.5751    1.1309    0.4803 H   0  0  0  0  0  0  0  0  0  0  0  0
    3.1061    1.5629    0.2582 H   0  0  0  0  0  0  0  0  0  0  0  0
    2.5513   -1.0164    1.7801 O   0  0  0  0  0  0  0  0  0  0  0  0
    3.0190   -0.2181    1.4869 H   0  0  0  0  0  0  0  0  0  0  0  0
    2.3616   -1.5335    0.9842 H   0  0  0  0  0  0  0  0  0  0  0  0
    1.5131    6.0087   -2.2140 O   0  0  0  0  0  0  0  0  0  0  0  0
    0.6165    5.7651   -2.5715 H   0  0  0  0  0  0  0  0  0  0  0  0
    1.6468    6.9339   -2.4254 H   0  0  0  0  0  0  0  0  0  0  0  0
   -2.2905   -3.2595    3.6096 O   0  0  0  0  0  0  0  0  0  0  0  0
   -2.3513   -3.9682    2.9503 H   0  0  0  0  0  0  0  0  0  0  0  0
   -1.3542   -3.2283    3.8744 H   0  0  0  0  0  0  0  0  0  0  0  0
    4.5842    0.4445   -1.8783 O   0  0  0  0  0  0  0  0  0  0  0  0
    4.7552    0.7198   -2.7858 H   0  0  0  0  0  0  0  0  0  0  0  0
    3.7646    0.9384   -1.6353 H   0  0  0  0  0  0  0  0  0  0  0  0
   -1.5097   -5.4194   -3.2223 O   0  0  0  0  0  0  0  0  0  0  0  0
   -0.7325   -5.9236   -3.5214 H   0  0  0  0  0  0  0  0  0  0  0  0
   -1.1288   -4.7426   -2.6201 H   0  0  0  0  0  0  0  0  0  0  0  0
   -3.0306   -1.4731    1.6715 O   0  0  0  0  0  0  0  0  0  0  0  0
   -2.9406   -2.0818    2.4302 H   0  0  0  0  0  0  0  0  0  0  0  0
   -2.9476   -2.0126    0.8678 H   0  0  0  0  0  0  0  0  0  0  0  0
    0.2555   -3.7621    1.4881 O   0  0  0  0  0  0  0  0  0  0  0  0
    0.3654   -3.5286    2.4409 H   0  0  0  0  0  0  0  0  0  0  0  0
   -0.5056   -4.3500    1.4424 H   0  0  0  0  0  0  0  0  0  0  0  0
    1.7216    0.0368   -3.1032 O   0  0  0  0  0  0  0  0  0  0  0  0
    2.3869    0.5442   -3.6190 H   0  0  0  0  0  0  0  0  0  0  0  0
    2.1767   -0.8035   -2.9131 H   0  0  0  0  0  0  0  0  0  0  0  0
   -4.0031   -4.4515   -2.1578 O   0  0  0  0  0  0  0  0  0  0  0  0
   -3.4755   -3.8641   -1.5818 H   0  0  0  0  0  0  0  0  0  0  0  0
   -3.3545   -5.0210   -2.5969 H   0  0  0  0  0  0  0  0  0  0  0  0
   -0.1534    2.5614   -3.0513 O   0  0  0  0  0  0  0  0  0  0  0  0
    0.7768    2.7903   -3.2188 H   0  0  0  0  0  0  0  0  0  0  0  0
   -0.2600    2.5533   -2.0856 H   0  0  0  0  0  0  0  0  0  0  0  0
   -4.5840    0.6785    1.1625 O   0  0  0  0  0  0  0  0  0  0  0  0
   -4.0877   -0.1449    1.3603 H   0  0  0  0  0  0  0  0  0  0  0  0
   -5.3725    0.6571    1.7089 H   0  0  0  0  0  0  0  0  0  0  0  0
    2.2994    1.8606   -1.2310 O   0  0  0  0  0  0  0  0  0  0  0  0
    1.8107    1.2096   -1.7756 H   0  0  0  0  0  0  0  0  0  0  0  0
    2.3790    2.6453   -1.7876 H   0  0  0  0  0  0  0  0  0  0  0  0
   -0.0581    0.3483   -5.1031 O   0  0  0  0  0  0  0  0  0  0  0  0
   -0.1594   -0.5834   -5.3904 H   0  0  0  0  0  0  0  0  0  0  0  0
    0.4313    0.2993   -4.2517 H   0  0  0  0  0  0  0  0  0  0  0  0
    1.8857   -2.7414   -0.3591 O   0  0  0  0  0  0  0  0  0  0  0  0
    1.0858   -2.8922   -0.8910 H   0  0  0  0  0  0  0  0  0  0  0  0
    1.8208   -3.4099    0.3371 H   0  0  0  0  0  0  0  0  0  0  0  0
    3.2149   -2.7096    3.7989 O   0  0  0  0  0  0  0  0  0  0  0  0
    3.7013   -2.2030    4.4529 H   0  0  0  0  0  0  0  0  0  0  0  0
    3.0166   -2.0794    3.0666 H   0  0  0  0  0  0  0  0  0  0  0  0
    1.1918    4.8690    0.2694 O   0  0  0  0  0  0  0  0  0  0  0  0
    1.3833    5.2714   -0.5963 H   0  0  0  0  0  0  0  0  0  0  0  0
    2.0521    4.6886    0.6946 H   0  0  0  0  0  0  0  0  0  0  0  0
    3.5175    4.1086    1.5642 O   0  0  0  0  0  0  0  0  0  0  0  0
    3.6026    3.1400    1.4469 H   0  0  0  0  0  0  0  0  0  0  0  0
    4.3845    4.4834    1.4001 H   0  0  0  0  0  0  0  0  0  0  0  0
   -2.7895   -0.7983    5.0989 O   0  0  0  0  0  0  0  0  0  0  0  0
   -2.7355   -1.6817    4.7114 H   0  0  0  0  0  0  0  0  0  0  0  0
   -2.0282   -0.7389    5.7119 H   0  0  0  0  0  0  0  0  0  0  0  0
   -1.3471    3.2258    5.5880 O   0  0  0  0  0  0  0  0  0  0  0  0
   -0.9323    3.9122    5.0340 H   0  0  0  0  0  0  0  0  0  0  0  0
   -1.4916    2.4763    4.9585 H   0  0  0  0  0  0  0  0  0  0  0  0
   -0.9757    3.1631   -0.5065 O   0  0  0  0  0  0  0  0  0  0  0  0
   -0.3925    3.8890   -0.2455 H   0  0  0  0  0  0  0  0  0  0  0  0
   -1.4705    2.9048    0.2935 H   0  0  0  0  0  0  0  0  0  0  0  0
    1.3995   -3.4484   -3.7751 O   0  0  0  0  0  0  0  0  0  0  0  0
    2.2081   -3.0200   -3.4476 H   0  0  0  0  0  0  0  0  0  0  0  0
    0.7371   -3.3676   -3.0593 H   0  0  0  0  0  0  0  0  0  0  0  0
   -0.0703   -2.2421   -5.7890 O   0  0  0  0  0  0  0  0  0  0  0  0
    0.5358   -2.6848   -5.1644 H   0  0  0  0  0  0  0  0  0  0  0  0
   -0.8854   -2.7793   -5.7668 H   0  0  0  0  0  0  0  0  0  0  0  0
    2.8165    2.8662    5.7750 O   0  0  0  0  0  0  0  0  0  0  0  0
    2.7521    2.3038    4.9687 H   0  0  0  0  0  0  0  0  0  0  0  0
    2.0359    2.6161    6.3013 H   0  0  0  0  0  0  0  0  0  0  0  0
   -2.3330    1.7315   -4.9236 O   0  0  0  0  0  0  0  0  0  0  0  0
   -2.7512    1.3954   -5.7206 H   0  0  0  0  0  0  0  0  0  0  0  0
   -1.4572    1.2724   -4.8684 H   0  0  0  0  0  0  0  0  0  0  0  0
   -0.3807   -0.4880    6.4384 O   0  0  0  0  0  0  0  0  0  0  0  0
    0.0652   -0.4945    5.5627 H   0  0  0  0  0  0  0  0  0  0  0  0
   -0.1281    0.3706    6.8148 H   0  0  0  0  0  0  0  0  0  0  0  0
    3.6405    1.4715   -4.3994 O   0  0  0  0  0  0  0  0  0  0  0  0
    3.3792    2.3489   -4.0662 H   0  0  0  0  0  0  0  0  0  0  0  0
    3.2390    1.4110   -5.2820 H   0  0  0  0  0  0  0  0  0  0  0  0
    3.4333   -1.9979   -2.4365 O   0  0  0  0  0  0  0  0  0  0  0  0
    3.0677   -2.3239   -1.5919 H   0  0  0  0  0  0  0  0  0  0  0  0
    4.0155   -1.2456   -2.1979 H   0  0  0  0  0  0  0  0  0  0  0  0
   -2.6274    2.5177    1.5928 O   0  0  0  0  0  0  0  0  0  0  0  0
   -3.3139    1.8723    1.3350 H   0  0  0  0  0  0  0  0  0  0  0  0
   -3.0873    3.3162    1.8590 H   0  0  0  0  0  0  0  0  0  0  0  0
    2.3648    3.7200   -3.4449 O   0  0  0  0  0  0  0  0  0  0  0  0
    2.0489    3.8932   -4.3617 H   0  0  0  0  0  0  0  0  0  0  0  0
    2.2473    4.5693   -2.9836 H   0  0  0  0  0  0  0  0  0  0  0  0
   -1.3777    4.1804   -5.7689 O   0  0  0  0  0  0  0  0  0  0  0  0
   -1.6935    3.3400   -5.3705 H   0  0  0  0  0  0  0  0  0  0  0  0
   -1.9741    4.3856   -6.4911 H   0  0  0  0  0  0  0  0  0  0  0  0
   -2.2552   -3.8321   -5.4100 O   0  0  0  0  0  0  0  0  0  0  0  0
   -3.0977   -3.4156   -5.1289 H   0  0  0  0  0  0  0  0  0  0  0  0
   -2.0216   -4.4506   -4.6920 H   0  0  0  0  0  0  0  0  0  0  0  0
    0.5603   -0.2581    3.8706 O   0  0  0  0  0  0  0  0  0  0  0  0
    1.3624    0.2973    3.7953 H   0  0  0  0  0  0  0  0  0  0  0  0
   -0.1975    0.3745    3.8120 H   0  0  0  0  0  0  0  0  0  0  0  0
    0.4834   -2.9533    4.0256 O   0  0  0  0  0  0  0  0  0  0  0  0
    1.4314   -3.1319    4.1461 H   0  0  0  0  0  0  0  0  0  0  0  0
    0.4453   -1.9720    3.9874 H   0  0  0  0  0  0  0  0  0  0  0  0
    1.4004    4.0047   -5.9292 O   0  0  0  0  0  0  0  0  0  0  0  0
    1.5773    3.1155   -6.2860 H   0  0  0  0  0  0  0  0  0  0  0  0
    0.4292    4.0758   -5.8765 H   0  0  0  0  0  0  0  0  0  0  0  0
   -3.0818    3.1355   -2.2937 O   0  0  0  0  0  0  0  0  0  0  0  0
   -2.3397    3.2378   -1.6606 H   0  0  0  0  0  0  0  0  0  0  0  0
   -2.6876    2.7364   -3.0800 H   0  0  0  0  0  0  0  0  0  0  0  0
   -2.3451   -4.8307    1.2459 O   0  0  0  0  0  0  0  0  0  0  0  0
   -2.3692   -4.1801    0.5089 H   0  0  0  0  0  0  0  0  0  0  0  0
   -2.9051   -5.5612    0.9770 H   0  0  0  0  0  0  0  0  0  0  0  0
   -4.4848   -2.7126   -4.3029 O   0  0  0  0  0  0  0  0  0  0  0  0
   -4.2687   -1.8128   -3.9853 H   0  0  0  0  0  0  0  0  0  0  0  0
   -4.5044   -3.2798   -3.5093 H   0  0  0  0  0  0  0  0  0  0  0  0
   -4.9618    1.3282   -1.5579 O   0  0  0  0  0  0  0  0  0  0  0  0
   -4.3479    2.0735   -1.7551 H   0  0  0  0  0  0  0  0  0  0  0  0
   -4.8110    1.1004   -0.6242 H   0  0  0  0  0  0  0  0  0  0  0  0
    0.4900    2.6842    2.1105 O   0  0  0  0  0  0  0  0  0  0  0  0
    0.1373    3.3402    2.7393 H   0  0  0  0  0  0  0  0  0  0  0  0
    0.8132    3.1989    1.3615 H   0  0  0  0  0  0  0  0  0  0  0  0
   -0.2031    6.6725    1.7414 O   0  0  0  0  0  0  0  0  0  0  0  0
    0.3498    7.4533    1.8116 H   0  0  0  0  0  0  0  0  0  0  0  0
    0.2881    6.0349    1.1712 H   0  0  0  0  0  0  0  0  0  0  0  0
   -1.5957    1.2627    3.7857 O   0  0  0  0  0  0  0  0  0  0  0  0
   -1.9225    1.6438    2.9467 H   0  0  0  0  0  0  0  0  0  0  0  0
   -2.2268    0.5911    4.1038 H   0  0  0  0  0  0  0  0  0  0  0  0
    2.4606    1.5740    3.4503 O   0  0  0  0  0  0  0  0  0  0  0  0
    1.7197    2.0367    2.9642 H   0  0  0  0  0  0  0  0  0  0  0  0
    3.1288    1.4134    2.7749 H   0  0  0  0  0  0  0  0  0  0  0  0
   -0.0854    4.7980    3.7441 O   0  0  0  0  0  0  0  0  0  0  0  0
    0.8677    4.9265    3.9589 H   0  0  0  0  0  0  0  0  0  0  0  0
   -0.3060    5.5225    3.1328 H   0  0  0  0  0  0  0  0  0  0  0  0
  1  2  1  0  0  0  0
  2  3  1  0  0  0  0
  3  4  1  0  0  0  0
  4  5  1  0  0  0  0
  5  6  4  0  0  0  0
  5  7  4  0  0  0  0
  1  8  1  0  0  0  0
  1  9  1  0  0  0  0
  2 10  1  0  0  0  0
  2 11  1  0  0  0  0
  3 12  1  0  0  0  0
  3 13  1  0  0  0  0
  4 14  1  0  0  0  0
  4 15  1  0  0  0  0
  1 16  1  0  0  0  0
 17 18  1  0  0  0  0
 17 19  1  0  0  0  0
 20 21  1  0  0  0  0
 20 22  1  0  0  0  0
 23 24  1  0  0  0  0
 23 25  1  0  0  0  0
 26 27  1  0  0  0  0
 26 28  1  0  0  0  0
 29 30  1  0  0  0  0
 29 31  1  0  0  0  0
 32 33  1  0  0  0  0
 32 34  1  0  0  0  0
 35 36  1  0  0  0  0
 35 37  1  0  0  0  0
 38 39  1  0  0  0  0
 38 40  1  0  0  0  0
 41 42  1  0  0  0  0
 41 43  1  0  0  0  0
 44 45  1  0  0  0  0
 44 46  1  0  0  0  0
 47 48  1  0  0  0  0
 47 49  1  0  0  0  0
 50 51  1  0  0  0  0
 50 52  1  0  0  0  0
 53 54  1  0  0  0  0
 53 55  1  0  0  0  0
 56 57  1  0  0  0  0
 56 58  1  0  0  0  0
 59 60  1  0  0  0  0
 59 61  1  0  0  0  0
 62 63  1  0  0  0  0
 62 64  1  0  0  0  0
 65 66  1  0  0  0  0
 65 67  1  0  0  0  0
 68 69  1  0  0  0  0
 68 70  1  0  0  0  0
 71 72  1  0  0  0  0
 71 73  1  0  0  0  0
 74 75  1  0  0  0  0
 74 76  1  0  0  0  0
 77 78  1  0  0  0  0
 77 79  1  0  0  0  0
 80 81  1  0  0  0  0
 80 82  1  0  0  0  0
 83 84  1  0  0  0  0
 83 85  1  0  0  0  0
 86 87  1  0  0  0  0
 86 88  1  0  0  0  0
 89 90  1  0  0  0  0
 89 91  1  0  0  0  0
 92 93  1  0  0  0  0
 92 94  1  0  0  0  0
 95 96  1  0  0  0  0
 95 97  1  0  0  0  0
 98 99  1  0  0  0  0
 98100  1  0  0  0  0
101102  1  0  0  0  0
101103  1  0  0  0  0
104105  1  0  0  0  0
104106  1  0  0  0  0
107108  1  0  0  0  0
107109  1  0  0  0  0
110111  1  0  0  0  0
110112  1  0  0  0  0
113114  1  0  0  0  0
113115  1  0  0  0  0
116117  1  0  0  0  0
116118  1  0  0  0  0
119120  1  0  0  0  0
119121  1  0  0  0  0
122123  1  0  0  0  0
122124  1  0  0  0  0
125126  1  0  0  0  0
125127  1  0  0  0  0
128129  1  0  0  0  0
128130  1  0  0  0  0
131132  1  0  0  0  0
131133  1  0  0  0  0
134135  1  0  0  0  0
134136  1  0  0  0  0
137138  1  0  0  0  0
137139  1  0  0  0  0
140141  1  0  0  0  0
140142  1  0  0  0  0
143144  1  0  0  0  0
143145  1  0  0  0  0
146147  1  0  0  0  0
146148  1  0  0  0  0
149150  1  0  0  0  0
149151  1  0  0  0  0
152153  1  0  0  0  0
152154  1  0  0  0  0
155156  1  0  0  0  0
155157  1  0  0  0  0
158159  1  0  0  0  0
158160  1  0  0  0  0
161162  1  0  0  0  0
161163  1  0  0  0  0
164165  1  0  0  0  0
164166  1  0  0  0  0
M  END
