58
Coordinates from ORCA-job input
  N          -0.67419617855405      0.81635848457146     -0.34277392891361
  C           0.42352539594301      1.77858346778110     -0.59352932212594
  C           0.16089066591233      2.65288132084651     -1.82137370219406
  C           0.46990182042023      2.00232053986428     -3.18636886584236
  C          -0.61688257903398      1.09275126299491     -3.74822040693190
  O          -1.11024058568702      1.36629296488605     -4.86899945130437
  O          -0.97588589113543      0.07835804967919     -3.07153514215113
  H          -0.46520076272359      0.24534645063392      0.51246653113508
  H          -1.58793491659496      1.31003028112743     -0.20997272552479
  H           0.53099896118876      2.39642168084309      0.29663728880784
  H           1.34893752563940      1.21712119917130     -0.72424635828137
  H           0.79903570092267      3.53311407401007     -1.73697541459719
  H          -0.87195983386086      3.01018604233215     -1.80113469596917
  H           1.38356430421540      1.40589352437723     -3.10540704122031
  H           0.64413297221346      2.77991860564945     -3.92866453860146
  H          -0.78261805282109      0.20907375633904     -1.15939889970336
  O           0.20580205740939     -0.59693205065586      1.86181624329118
  H           0.94446138721253     -0.97403859403477      1.33079872413864
  H          -0.38565532596653     -1.35111885447485      2.07604111814587
  O          -3.61232589363528     -0.10370495788267     -2.18540139874986
  H          -4.16508361755684     -0.06168037632653     -2.97998393083726
  H          -2.69543797302231     -0.01790083117617     -2.52130020317039
  O          -3.71597302643650      0.41023102362648     -5.11011619743104
  H          -4.18544743561169      0.89651962386621     -5.79745773755673
  H          -2.81142782497646      0.79825866163654     -5.06533868561483
  O          -3.25194425982808      1.86569853941564     -0.20426609752828
  H          -3.58768904371809      1.26790276273082     -0.90472939759034
  H          -3.43541200067024      1.38818156705988      0.62767112421342
  H          -0.19401721976434     -1.43564360493785     -2.37444759391498
  H           0.35197116696314     -2.89092192064430     -2.46057430575482
  O           0.01106227965029     -2.21788965816182     -1.82539025941575
  H           1.27770218141031     -1.84024818087571     -0.65992682989469
  H           2.56435698159138     -2.32888972851412      0.07989362530835
  O           1.95710477051979     -1.58350176083247      0.00789720002939
  O           1.04139682739653     -3.86741823423605     -3.76108228419191
  H           0.87535189128940     -4.81523500894821     -3.82681568670841
  H           0.70513921767573     -3.47516933972904     -4.60226123137964
  O          -1.53124503874404     -2.75229633008689      2.16262638064985
  H          -1.26555720350443     -3.67202098842914      2.27967042432953
  H          -1.93151639532387     -2.68866041180118      1.27564086663737
  H          -1.58385275019692     -2.18191564326990     -0.89911798184206
  O          -2.42587059435969     -2.03323199315609     -0.41543547353930
  H          -3.01243079371601     -1.57928152615719     -1.05014190782364
  H          -1.04035029123035     -2.64498821078919     -5.49452208224959
  O          -0.19354603830463     -2.81383367604033     -5.96603221943586
  H           0.02997087943655     -1.95713125109009     -6.37507026980819
  O          -2.31473028485326     -1.98478118689661     -4.46465515691018
  H          -3.02523268982690     -1.47755082884846     -4.89120699422316
  H          -1.79771139024598     -1.30713363378893     -3.98340919804827
  O           0.75949176330353      2.07533091901477      2.67304935341831
  H           0.62998930331550      1.12081571744034      2.52591969354642
  H           0.19038701231496      2.30438736424210      3.41662679190517
  H          -2.90788173553223     -0.81281579570940      0.94127194972852
  H          -2.86575451082328     -0.60643228133442      2.47193122935913
  O          -3.14191402757472     -0.18224757580328      1.65105062471866
  H          -0.35098245768466      0.15107128267910     -7.80935005522071
  H          -0.42388964651877      0.43601206368630     -6.28401776756531
  O          -0.02463229493754     -0.15341181675589     -6.95490260830441
