34
Coordinates from ORCA-job 01_Alanine_zwitterion
  O           0.32431032634745     -0.64969960555992      1.27459738806803
  H          -0.56005330087082     -0.55298790584772      1.65403452219252
  H           0.38847413731328      0.06857550652443      0.61208005989822
  O           2.35001774049581      2.30211618966816      0.98367397316746
  H           2.39077592688819      3.26011329287625      1.06896656675977
  H           1.59792837780334      2.12791544799738      0.37251960248362
  H           2.09747010944093     -2.21226541049488     -2.65249279344286
  O           1.76701502214267     -2.69885614960440     -3.43135740065885
  H           2.12116495758451     -2.22857155257407     -4.20080379569906
  H          -1.60819613768209     -0.78250384489047     -1.12393899827785
  C          -1.57478009628029     -0.15966909262220     -2.01612203830379
  H           0.08270069489099     -1.28811098099436     -2.68575121560182
  H          -2.29186043441740     -0.54922526808331     -2.73243949240866
  N          -0.20784588776539     -0.31256630573718     -2.60378755677229
  H          -2.84282850720254      1.39591824483284     -1.28579829166347
  C          -1.84015891575141      1.30623010122935     -1.70077730434255
  O           0.31296027440782      1.45282082422531     -0.64336327051306
  C          -0.84978259050754      1.97233636048057     -0.74389486465026
  H           0.43293189482365      0.20216978260632     -1.96571445025888
  O          -1.21398257720826      3.00338247853883     -0.15218324361948
  H          -0.16696058288860      0.11071595010572     -3.52902787999103
  H          -1.83456967372419      1.88037614290555     -2.63347753556765
  O          -3.72005132266466      4.06022228623431     -0.55095996860959
  H          -3.83250833917997      4.18567007526741     -1.49997842717951
  H          -2.82473202001138      3.65912740289358     -0.44948297998902
  O          -0.95284929363560     -3.33071290801692     -3.96699667251515
  H          -0.01170736108504     -3.16496152372089     -3.76169430389507
  H          -1.33704699691613     -3.64484595519364     -3.13883155254371
  O           2.84005345537173     -0.85307767288814     -1.63939630444072
  H           3.29539981965901     -0.30933106417166     -2.29432969980290
  H           2.73447920852906     -0.29346208618019     -0.85913103936358
  O          -4.76582752021112      0.75526942299923     -3.67305983679144
  H          -3.94978936206181      0.94317718616898     -4.15360362393996
  H          -4.86571102563415      1.50485063102571     -3.07142757172727
