          37
  Built with Packmol                                             
  N            0.058148       -0.927583        1.469607
  C            0.211959        0.510020        1.257389
  C           -0.420296        1.026601       -0.053995
  C            0.232909        0.510995       -1.351786
  C           -0.125253       -0.896436       -1.755618
  O            0.432585       -1.420882       -2.861979
  O           -0.947959       -1.551103       -1.137172
  H            0.428548       -1.166868        2.416841
  H           -0.951876       -1.193831        1.431538
  H           -0.278739        1.044785        2.100148
  H            1.291996        0.772629        1.278823
  H           -0.263312        2.127518       -0.038280
  H           -1.516957        0.851348       -0.073370
  H            1.334639        0.617682       -1.263614
  H           -0.104560        1.158543       -2.189480
  H            0.618166       -1.463418        0.770947
  O            3.531198       -2.237345        0.042248
  H            4.145182       -1.460414        0.038889
  H            3.451488       -2.486445        0.997344
  O            2.941427        3.212131       -0.672383
  H            2.149459        2.880943       -1.166055
  H            3.502532        2.407785       -0.535258
  O           -2.555719        4.495696        0.829289
  H           -2.595486        4.142057        1.753393
  H           -1.670056        4.934602        0.769503
  O            0.193827        4.951342       -1.850815
  H           -0.286370        4.987524       -0.985534
  H            0.436983        3.997621       -1.959927
  O            3.912377        0.270951        3.136160
  H            3.967988       -0.703736        2.970321
  H            3.384242        0.351009        3.969992
  O            1.129922        5.296780        1.788547
  H            1.676320        5.485231        0.984467
  H            1.780215        5.294092        2.535357
  O            4.370374        0.443316       -2.179569
  H            3.697601        1.150031       -2.348512
  H            3.991634       -0.366625       -2.605204
