 xtb: 6.7.1 (edcfbbe)
          06092518063D

 37 29  0     0  0            999 V2000
   -0.3052   -0.5000    2.1059 N   0  0  0  0  0  0  0  0  0  0  0  0
    0.5783    0.3962    1.3423 C   0  0  0  0  0  0  0  0  0  0  0  0
    0.0403    0.6695   -0.0618 C   0  0  0  0  0  0  0  0  0  0  0  0
   -0.4453   -0.5911   -0.7948 C   0  0  0  0  0  0  0  0  0  0  0  0
    0.5032   -1.7895   -0.6280 C   0  0  0  0  0  0  0  0  0  0  0  0
    1.4540   -1.9344   -1.4204 O   0  0  0  0  0  0  0  0  0  0  0  0
    0.2542   -2.5757    0.3278 O   0  0  0  0  0  0  0  0  0  0  0  0
   -0.0099   -0.5654    3.1124 H   0  0  0  0  0  0  0  0  0  0  0  0
   -1.2940   -0.2007    2.0811 H   0  0  0  0  0  0  0  0  0  0  0  0
    0.6897    1.3394    1.8759 H   0  0  0  0  0  0  0  0  0  0  0  0
    1.5584   -0.0794    1.2647 H   0  0  0  0  0  0  0  0  0  0  0  0
    0.8366    1.1273   -0.6496 H   0  0  0  0  0  0  0  0  0  0  0  0
   -0.7911    1.3745   -0.0159 H   0  0  0  0  0  0  0  0  0  0  0  0
   -1.4281   -0.8917   -0.4306 H   0  0  0  0  0  0  0  0  0  0  0  0
   -0.5216   -0.3704   -1.8599 H   0  0  0  0  0  0  0  0  0  0  0  0
   -0.2463   -1.4389    1.6689 H   0  0  0  0  0  0  0  0  0  0  0  0
   -2.4981   -1.0713    4.9797 O   0  0  0  0  0  0  0  0  0  0  0  0
   -2.7694   -0.9151    4.0516 H   0  0  0  0  0  0  0  0  0  0  0  0
   -2.9878   -1.8388    5.2865 H   0  0  0  0  0  0  0  0  0  0  0  0
   -2.2640    3.2222   -0.1163 O   0  0  0  0  0  0  0  0  0  0  0  0
   -2.2719    3.7035   -0.9483 H   0  0  0  0  0  0  0  0  0  0  0  0
   -2.4421    3.8605    0.5822 H   0  0  0  0  0  0  0  0  0  0  0  0
    2.3149    0.3245   -2.7100 O   0  0  0  0  0  0  0  0  0  0  0  0
    3.1308    0.1083   -3.1707 H   0  0  0  0  0  0  0  0  0  0  0  0
    2.0193   -0.5107   -2.2900 H   0  0  0  0  0  0  0  0  0  0  0  0
   -3.0879   -0.7516    2.3142 O   0  0  0  0  0  0  0  0  0  0  0  0
   -2.9294   -1.5994    1.8534 H   0  0  0  0  0  0  0  0  0  0  0  0
   -3.9216   -0.4053    1.9869 H   0  0  0  0  0  0  0  0  0  0  0  0
   -2.3436   -3.0611    1.0390 O   0  0  0  0  0  0  0  0  0  0  0  0
   -1.4174   -2.9775    0.7334 H   0  0  0  0  0  0  0  0  0  0  0  0
   -2.4370   -3.9605    1.3642 H   0  0  0  0  0  0  0  0  0  0  0  0
   -1.7924    1.2712    6.4588 O   0  0  0  0  0  0  0  0  0  0  0  0
   -0.8740    1.2851    6.1679 H   0  0  0  0  0  0  0  0  0  0  0  0
   -2.1927    0.5151    5.9981 H   0  0  0  0  0  0  0  0  0  0  0  0
    0.2033   -0.7217    4.7638 O   0  0  0  0  0  0  0  0  0  0  0  0
   -0.7385   -0.9003    4.9653 H   0  0  0  0  0  0  0  0  0  0  0  0
    0.7102   -1.4670    5.0954 H   0  0  0  0  0  0  0  0  0  0  0  0
  1  2  1  0  0  0  0
  2  3  1  0  0  0  0
  3  4  1  0  0  0  0
  4  5  1  0  0  0  0
  5  6  2  0  0  0  0
  5  7  4  0  0  0  0
  1  8  1  0  0  0  0
  1  9  1  0  0  0  0
  2 10  1  0  0  0  0
  2 11  1  0  0  0  0
  3 12  1  0  0  0  0
  3 13  1  0  0  0  0
  4 14  1  0  0  0  0
  4 15  1  0  0  0  0
  1 16  1  0  0  0  0
 17 18  1  0  0  0  0
 17 19  1  0  0  0  0
 20 21  1  0  0  0  0
 20 22  1  0  0  0  0
 23 24  1  0  0  0  0
 23 25  1  0  0  0  0
 26 27  1  0  0  0  0
 26 28  1  0  0  0  0
 29 30  1  0  0  0  0
 29 31  1  0  0  0  0
 32 33  1  0  0  0  0
 32 34  1  0  0  0  0
 35 36  1  0  0  0  0
 35 37  1  0  0  0  0
M  END
