 xtb: 6.7.1 (edcfbbe)
          06092518003D

 37 29  0     0  0            999 V2000
    1.1377    0.0287    1.7205 N   0  0  0  0  0  0  0  0  0  0  0  0
    0.7721   -0.4979    0.3882 C   0  0  0  0  0  0  0  0  0  0  0  0
    0.0778    0.5639   -0.4562 C   0  0  0  0  0  0  0  0  0  0  0  0
   -0.3191   -0.0193   -1.8050 C   0  0  0  0  0  0  0  0  0  0  0  0
   -1.1021    0.9615   -2.6997 C   0  0  0  0  0  0  0  0  0  0  0  0
   -1.1778    2.1586   -2.3670 O   0  0  0  0  0  0  0  0  0  0  0  0
   -1.6186    0.4732   -3.7426 O   0  0  0  0  0  0  0  0  0  0  0  0
    1.7691    0.8269    1.6179 H   0  0  0  0  0  0  0  0  0  0  0  0
    0.3009    0.3403    2.2199 H   0  0  0  0  0  0  0  0  0  0  0  0
    0.1038   -1.3500    0.5062 H   0  0  0  0  0  0  0  0  0  0  0  0
    1.6706   -0.8408   -0.1251 H   0  0  0  0  0  0  0  0  0  0  0  0
    0.7252    1.4247   -0.6320 H   0  0  0  0  0  0  0  0  0  0  0  0
   -0.8275    0.9305    0.0323 H   0  0  0  0  0  0  0  0  0  0  0  0
   -0.9381   -0.9068   -1.6732 H   0  0  0  0  0  0  0  0  0  0  0  0
    0.5664   -0.3168   -2.3711 H   0  0  0  0  0  0  0  0  0  0  0  0
    1.6196   -0.7095    2.2998 H   0  0  0  0  0  0  0  0  0  0  0  0
   -4.0196   -4.2565   -0.6052 O   0  0  0  0  0  0  0  0  0  0  0  0
   -4.7415   -3.8473   -1.0913 H   0  0  0  0  0  0  0  0  0  0  0  0
   -4.2690   -4.2634    0.3249 H   0  0  0  0  0  0  0  0  0  0  0  0
    2.9630   -2.2484   -1.2676 O   0  0  0  0  0  0  0  0  0  0  0  0
    3.4883   -2.5363   -2.0178 H   0  0  0  0  0  0  0  0  0  0  0  0
    2.3078   -2.9543   -1.1075 H   0  0  0  0  0  0  0  0  0  0  0  0
    1.0272   -4.2186   -0.8694 O   0  0  0  0  0  0  0  0  0  0  0  0
    0.1430   -3.8335   -1.0224 H   0  0  0  0  0  0  0  0  0  0  0  0
    1.0217   -5.0703   -1.3152 H   0  0  0  0  0  0  0  0  0  0  0  0
   -1.9184   -2.1851   -3.9614 O   0  0  0  0  0  0  0  0  0  0  0  0
   -1.8519   -1.2033   -3.8833 H   0  0  0  0  0  0  0  0  0  0  0  0
   -1.4844   -2.4078   -4.7905 H   0  0  0  0  0  0  0  0  0  0  0  0
    1.9828    1.6125    6.1508 O   0  0  0  0  0  0  0  0  0  0  0  0
    2.9279    1.7841    6.0935 H   0  0  0  0  0  0  0  0  0  0  0  0
    1.8505    0.9856    6.8683 H   0  0  0  0  0  0  0  0  0  0  0  0
    2.3780   -1.8218    3.2830 O   0  0  0  0  0  0  0  0  0  0  0  0
    1.9433   -2.6721    3.3968 H   0  0  0  0  0  0  0  0  0  0  0  0
    3.3091   -1.9905    3.1109 H   0  0  0  0  0  0  0  0  0  0  0  0
   -1.4918   -3.2579   -1.4178 O   0  0  0  0  0  0  0  0  0  0  0  0
   -2.3205   -3.6797   -1.1340 H   0  0  0  0  0  0  0  0  0  0  0  0
   -1.6461   -2.9610   -2.3315 H   0  0  0  0  0  0  0  0  0  0  0  0
  1  2  1  0  0  0  0
  2  3  1  0  0  0  0
  3  4  1  0  0  0  0
  4  5  1  0  0  0  0
  5  6  2  0  0  0  0
  5  7  4  0  0  0  0
  1  8  1  0  0  0  0
  1  9  1  0  0  0  0
  2 10  1  0  0  0  0
  2 11  1  0  0  0  0
  3 12  1  0  0  0  0
  3 13  1  0  0  0  0
  4 14  1  0  0  0  0
  4 15  1  0  0  0  0
  1 16  1  0  0  0  0
 17 18  1  0  0  0  0
 17 19  1  0  0  0  0
 20 21  1  0  0  0  0
 20 22  1  0  0  0  0
 23 24  1  0  0  0  0
 23 25  1  0  0  0  0
 26 27  1  0  0  0  0
 26 28  1  0  0  0  0
 29 30  1  0  0  0  0
 29 31  1  0  0  0  0
 32 33  1  0  0  0  0
 32 34  1  0  0  0  0
 35 36  1  0  0  0  0
 35 37  1  0  0  0  0
M  END
