37
Coordinates from ORCA-job 02_Aminobutyric-acid_zwitterion
  N           1.34425427862209     -0.24271213117656      0.69500678705172
  C           1.91465519294712     -0.18036554973902     -0.68903960869776
  C           1.30568256523024      0.94664511187458     -1.49787262176641
  C           1.94785610168166      1.05676344886211     -2.87582350195915
  C           3.41212790273528      1.50599151113377     -2.90798212379918
  O           3.99407211388448      1.80085916274199     -1.82169387645199
  O           3.96047353876279      1.51970922088208     -4.03270744114519
  H           1.53453137737224      0.60806437626613      1.23131269635571
  H           0.33268996033781     -0.37525148481782      0.68661187866127
  H           1.73629440119749     -1.15162585374473     -1.14938582016195
  H           2.98450197180737     -0.04847956391180     -0.56897483949541
  H           1.43204838854993      1.89091510076986     -0.96695443786899
  H           0.23080347964830      0.77436659524524     -1.61223501465805
  H           1.90302012097857      0.09641639219755     -3.39869591145822
  H           1.37714220495648      1.75386773260035     -3.49262078005706
  H           1.76405778165569     -1.01575968054465      1.21614799365542
  O           0.11524620165948      1.43395517617050      2.82021788509135
  H          -0.66625301162746      1.68525364402768      2.31839122389561
  O           6.68733109685045      1.40061758253628     -3.91182880814938
  H           6.89607583833389      1.06174874751581     -3.03383244009636
  H          -0.16384606734072      0.65166775516847      3.32666556789725
  H           5.69872213442327      1.44588726572309     -3.92695831932924
  O           5.39961878341899     -0.53717863751897     -1.20171999090439
  H           5.04951078214343      0.36466453541192     -1.32884517096871
  H           4.98981165396069     -1.04132382898138     -1.91676235551658
  O           4.45089312901464     -0.35826205254169      1.88796801314499
  H           4.86900140690975     -0.69819584145921      1.08313057728543
  H           4.16948919311202      0.53320746583175      1.64994669039053
  O          -1.40708924046681      0.50573393455646     -4.15447198721624
  H          -0.61821591698098      0.24521472202771     -4.64673483464404
  H          -1.45205649469489     -0.12508876344904     -3.42503268014387
  O           2.97303288691207     -3.53273207965305      0.60682836217907
  H           3.54748533571740     -2.80859929383142      0.32389124233200
  H           2.20706785008927     -3.47922294113065      0.01992409282492
  O           3.05037372436459      3.42866892087887      0.19310683835788
  H           3.34358966118716      2.82449348594044     -0.51523139681038
  H           2.88815967264610      2.86121581413732      0.95077411217546
