 xtb: 6.7.1 (edcfbbe)
          06102519353D

 46 35  0     0  0            999 V2000
   -0.1699   -0.9960    1.6378 N   0  0  0  0  0  0  0  0  0  0  0  0
   -1.1225   -0.5830    0.5943 C   0  0  0  0  0  0  0  0  0  0  0  0
   -0.4155    0.2526   -0.4681 C   0  0  0  0  0  0  0  0  0  0  0  0
   -1.4080    0.9371   -1.4154 C   0  0  0  0  0  0  0  0  0  0  0  0
   -2.2243   -0.0745   -2.2166 C   0  0  0  0  0  0  0  0  0  0  0  0
   -3.3428   -0.4316   -1.7710 O   0  0  0  0  0  0  0  0  0  0  0  0
   -1.7446   -0.5133   -3.2913 O   0  0  0  0  0  0  0  0  0  0  0  0
    0.5891   -1.5618    1.2238 H   0  0  0  0  0  0  0  0  0  0  0  0
    0.2538   -0.1570    2.0763 H   0  0  0  0  0  0  0  0  0  0  0  0
   -1.9224    0.0076    1.0430 H   0  0  0  0  0  0  0  0  0  0  0  0
   -1.5699   -1.4683    0.1424 H   0  0  0  0  0  0  0  0  0  0  0  0
    0.2672   -0.3701   -1.0483 H   0  0  0  0  0  0  0  0  0  0  0  0
    0.1647    1.0350    0.0235 H   0  0  0  0  0  0  0  0  0  0  0  0
   -2.0992    1.5554   -0.8413 H   0  0  0  0  0  0  0  0  0  0  0  0
   -0.8659    1.5637   -2.1259 H   0  0  0  0  0  0  0  0  0  0  0  0
   -0.6539   -1.5635    2.3755 H   0  0  0  0  0  0  0  0  0  0  0  0
   -4.0542   -2.7657   -0.3742 O   0  0  0  0  0  0  0  0  0  0  0  0
   -3.7292   -1.9603   -0.8054 H   0  0  0  0  0  0  0  0  0  0  0  0
   -4.8579   -2.9902   -0.8562 H   0  0  0  0  0  0  0  0  0  0  0  0
   -2.7964   -4.1560    1.6864 O   0  0  0  0  0  0  0  0  0  0  0  0
   -3.2999   -3.6471    1.0289 H   0  0  0  0  0  0  0  0  0  0  0  0
   -2.4030   -4.8928    1.2107 H   0  0  0  0  0  0  0  0  0  0  0  0
   -0.6275    1.3591   -5.0361 O   0  0  0  0  0  0  0  0  0  0  0  0
   -0.9322    1.2188   -5.9377 H   0  0  0  0  0  0  0  0  0  0  0  0
   -1.1008    0.7084   -4.4885 H   0  0  0  0  0  0  0  0  0  0  0  0
    1.0609   -0.7747   -3.4815 O   0  0  0  0  0  0  0  0  0  0  0  0
    1.3414   -0.0622   -4.0648 H   0  0  0  0  0  0  0  0  0  0  0  0
    0.1015   -0.6467   -3.3769 H   0  0  0  0  0  0  0  0  0  0  0  0
   -4.1568    0.8091    0.6189 O   0  0  0  0  0  0  0  0  0  0  0  0
   -5.0270    0.4991    0.8857 H   0  0  0  0  0  0  0  0  0  0  0  0
   -3.9646    0.3773   -0.2328 H   0  0  0  0  0  0  0  0  0  0  0  0
    0.9684    1.2967    2.7844 O   0  0  0  0  0  0  0  0  0  0  0  0
    1.8411    1.2129    3.1802 H   0  0  0  0  0  0  0  0  0  0  0  0
    0.4323    1.8351    3.3734 H   0  0  0  0  0  0  0  0  0  0  0  0
    1.9191   -2.4899    0.4440 O   0  0  0  0  0  0  0  0  0  0  0  0
    2.8263   -2.2025    0.3130 H   0  0  0  0  0  0  0  0  0  0  0  0
    1.8454   -3.3879    0.1118 H   0  0  0  0  0  0  0  0  0  0  0  0
   -0.7161   -3.0411   -4.3278 O   0  0  0  0  0  0  0  0  0  0  0  0
    0.1940   -2.7475   -4.1859 H   0  0  0  0  0  0  0  0  0  0  0  0
   -1.2587   -2.2910   -4.0460 H   0  0  0  0  0  0  0  0  0  0  0  0
   -1.5519   -2.4815    3.4637 O   0  0  0  0  0  0  0  0  0  0  0  0
   -2.2574   -2.0502    3.9537 H   0  0  0  0  0  0  0  0  0  0  0  0
   -1.9811   -3.1528    2.8992 H   0  0  0  0  0  0  0  0  0  0  0  0
   -5.6118   -1.8121   -2.7549 O   0  0  0  0  0  0  0  0  0  0  0  0
   -5.5672   -2.0010   -3.6965 H   0  0  0  0  0  0  0  0  0  0  0  0
   -4.8417   -1.2542   -2.5497 H   0  0  0  0  0  0  0  0  0  0  0  0
  1  2  1  0  0  0  0
  2  3  1  0  0  0  0
  3  4  1  0  0  0  0
  4  5  1  0  0  0  0
  5  6  4  0  0  0  0
  5  7  4  0  0  0  0
  1  8  1  0  0  0  0
  1  9  1  0  0  0  0
  2 10  1  0  0  0  0
  2 11  1  0  0  0  0
  3 12  1  0  0  0  0
  3 13  1  0  0  0  0
  4 14  1  0  0  0  0
  4 15  1  0  0  0  0
  1 16  1  0  0  0  0
 17 18  1  0  0  0  0
 17 19  1  0  0  0  0
 20 21  1  0  0  0  0
 20 22  1  0  0  0  0
 23 24  1  0  0  0  0
 23 25  1  0  0  0  0
 26 27  1  0  0  0  0
 26 28  1  0  0  0  0
 29 30  1  0  0  0  0
 29 31  1  0  0  0  0
 32 33  1  0  0  0  0
 32 34  1  0  0  0  0
 35 36  1  0  0  0  0
 35 37  1  0  0  0  0
 38 39  1  0  0  0  0
 38 40  1  0  0  0  0
 41 42  1  0  0  0  0
 41 43  1  0  0  0  0
 44 45  1  0  0  0  0
 44 46  1  0  0  0  0
M  END
