58
Coordinates from ORCA-job 07_Aminobutyric-acid_zwitterion
  N           0.37014377749682      0.88291147838348     -0.39929678622844
  C           1.20828300982860      2.05488064739074     -0.79973016127584
  C           0.57082339721414      2.88672516025474     -1.90946283017787
  C           0.46907843806067      2.20211453154487     -3.27636622042188
  C          -0.58343222168959      1.10788200281559     -3.42517686691250
  O          -0.31154431950972      0.14769735490965     -4.20741190517571
  O          -1.66452707225114      1.19799084663642     -2.78922765656517
  H           0.68307476609421      0.45628211891166      0.48001007069241
  H          -0.60756471669091      1.18100096656173     -0.24299162095230
  H           1.34511123528597      2.66382172392482      0.09061986456246
  H           2.17812461934762      1.67347916223669     -1.11958534484030
  H           1.20697986837711      3.76669415125094     -2.02677138452526
  H          -0.40538447839013      3.25605033797735     -1.59285593568181
  H           1.44063238691011      1.80276903139641     -3.56956852070825
  H           0.20641819655651      2.95915866672302     -4.02316404650804
  H           0.39302931952289      0.12327271314328     -1.10142026712839
  O          -3.90592924643463      0.36579632977754      1.36433098996725
  H          -3.45480047102809     -0.49744825970873      1.25420728376131
  H          -4.82014555119742      0.22074070127557      1.09150730854073
  O          -1.25958215917219      3.91230874863381      1.41073662480397
  H          -0.60061565937852      4.41457481785327      0.91562988963399
  H          -1.67273236620704      3.30972360325438      0.75440262285961
  O          -0.19986505623477     -0.52627322952494      1.99662467610976
  H           0.24723194771393     -1.21056314354899      2.50974734171968
  H          -0.94319293723412     -0.97479930331556      1.52942873481499
  O           3.09345098687735     -1.19462797149449     -2.63611776278497
  H           2.88283103799560     -0.88022479156328     -3.54770490064353
  H           3.36756649696880     -0.39833932368179     -2.15563221915490
  O          -2.25962185083608     -1.69791851733929      0.56888314342929
  H          -2.10497459880009     -2.66603193216899      0.59783819533114
  H          -2.46081722021269     -1.46836925696689     -0.36759267908489
  O          -2.16230418017086     -1.89717346557940     -4.68432076081476
  H          -2.61071688747784     -1.93443052083534     -3.82319602092473
  H          -1.53867396491703     -1.14905606625518     -4.56170489336092
  O           2.18056448105666     -0.37635210527227     -5.09890467617769
  H           2.11409906517275     -1.10613985655887     -5.72866395428292
  H           1.25060044211532     -0.18175587019788     -4.81381216039013
  O           2.77324304302476      2.57663514036819      2.48076061346001
  H           3.13273353119677      1.80943408008883      2.02081740985674
  H           1.83747713740605      2.34325918353191      2.67372603499378
  O          -1.69594903646950     -4.40974543508942      0.65055270745228
  H          -0.76049998911255     -4.55510781742252      0.84650153770560
  H          -2.17312820888347     -4.89222848543215      1.33887748149677
  O           0.46570362769410     -1.54918603569343     -1.93100240117606
  H          -0.02477754033921     -1.26003542618754     -2.71389627163617
  H           1.41945117397264     -1.49613831250066     -2.16791988671819
  O          -2.30160960320367      1.95343880386604     -0.19723588317289
  H          -2.94818885998105      1.35869169493807      0.24658876572551
  H          -2.31696451272850      1.79417671331557     -1.15742373525311
  O           4.63405026925152      1.37062796969650     -2.15193541127542
  H           4.46076309660807      2.28944858656198     -1.91098708033417
  H           5.04119194519373      0.98853221349579     -1.36574198894681
  O          -2.99147393326244     -1.01736770963351     -2.00372198042334
  H          -2.54297877657813     -0.21225249683377     -2.36899108925949
  H          -3.93127146551911     -0.79791448870798     -1.95910994898085
  O           0.09805571588736      2.09459077577469      3.03287335322573
  H          -0.41682149197045      2.73262300411885      2.49093580167097
  H          -0.11680525208515      1.20514142249403      2.69731794274307
