 xtb: 6.7.1 (edcfbbe)
          06092517583D

 34 26  0     0  0            999 V2000
    0.8982   -0.7286    0.1792 H   0  0  0  0  0  0  0  0  0  0  0  0
   -0.1426   -1.0405    0.0851 C   0  0  0  0  0  0  0  0  0  0  0  0
    0.1135   -1.2537   -1.9839 H   0  0  0  0  0  0  0  0  0  0  0  0
   -0.2217   -2.0864    0.3794 H   0  0  0  0  0  0  0  0  0  0  0  0
   -0.5791   -0.8718   -1.3135 N   0  0  0  0  0  0  0  0  0  0  0  0
   -0.7216   -0.3346    2.0394 H   0  0  0  0  0  0  0  0  0  0  0  0
   -1.0108   -0.1848    1.0011 C   0  0  0  0  0  0  0  0  0  0  0  0
   -0.9152    1.6542   -0.5337 O   0  0  0  0  0  0  0  0  0  0  0  0
   -0.9174    1.3193    0.6786 C   0  0  0  0  0  0  0  0  0  0  0  0
   -0.6916    0.1577   -1.4360 H   0  0  0  0  0  0  0  0  0  0  0  0
   -0.8759    2.1293    1.6277 O   0  0  0  0  0  0  0  0  0  0  0  0
   -1.5038   -1.3181   -1.4614 H   0  0  0  0  0  0  0  0  0  0  0  0
   -2.0610   -0.4653    0.8916 H   0  0  0  0  0  0  0  0  0  0  0  0
   -0.7278    4.2520   -1.4846 O   0  0  0  0  0  0  0  0  0  0  0  0
   -0.7985    3.3281   -1.1662 H   0  0  0  0  0  0  0  0  0  0  0  0
   -0.7363    4.7999   -0.6945 H   0  0  0  0  0  0  0  0  0  0  0  0
    2.6684   -2.6442    5.2510 O   0  0  0  0  0  0  0  0  0  0  0  0
    1.9848   -2.7363    5.9210 H   0  0  0  0  0  0  0  0  0  0  0  0
    2.2715   -2.0950    4.5465 H   0  0  0  0  0  0  0  0  0  0  0  0
    0.4025    1.4925    3.9344 O   0  0  0  0  0  0  0  0  0  0  0  0
   -0.0523    1.7803    3.1141 H   0  0  0  0  0  0  0  0  0  0  0  0
   -0.1644    1.7648    4.6622 H   0  0  0  0  0  0  0  0  0  0  0  0
    3.0623   -0.5606    1.0428 O   0  0  0  0  0  0  0  0  0  0  0  0
    3.5836    0.2452    1.1069 H   0  0  0  0  0  0  0  0  0  0  0  0
    3.6800   -1.2872    0.9052 H   0  0  0  0  0  0  0  0  0  0  0  0
    1.2977   -1.8876   -3.1095 O   0  0  0  0  0  0  0  0  0  0  0  0
    1.9077   -1.2868   -3.5458 H   0  0  0  0  0  0  0  0  0  0  0  0
    1.1018   -2.6047   -3.7200 H   0  0  0  0  0  0  0  0  0  0  0  0
   -3.1095   -2.0272   -1.6396 O   0  0  0  0  0  0  0  0  0  0  0  0
   -3.2381   -2.9522   -1.8723 H   0  0  0  0  0  0  0  0  0  0  0  0
   -3.7877   -1.5154   -2.0890 H   0  0  0  0  0  0  0  0  0  0  0  0
    1.4641   -1.0257    3.3359 O   0  0  0  0  0  0  0  0  0  0  0  0
    1.9976   -0.8643    2.5380 H   0  0  0  0  0  0  0  0  0  0  0  0
    1.1667   -0.1467    3.6292 H   0  0  0  0  0  0  0  0  0  0  0  0
  1  2  1  0  0  0  0
  2  4  1  0  0  0  0
  2  5  1  0  0  0  0
  3  5  1  0  0  0  0
  2  7  1  0  0  0  0
  6  7  1  0  0  0  0
  7  9  1  0  0  0  0
  8  9  4  0  0  0  0
  5 10  1  0  0  0  0
  9 11  4  0  0  0  0
  5 12  1  0  0  0  0
  7 13  1  0  0  0  0
 14 15  1  0  0  0  0
 14 16  1  0  0  0  0
 17 18  1  0  0  0  0
 17 19  1  0  0  0  0
 20 21  1  0  0  0  0
 20 22  1  0  0  0  0
 23 24  1  0  0  0  0
 23 25  1  0  0  0  0
 26 27  1  0  0  0  0
 26 28  1  0  0  0  0
 29 30  1  0  0  0  0
 29 31  1  0  0  0  0
 32 33  1  0  0  0  0
 32 34  1  0  0  0  0
M  END
