 xtb: 6.7.1 (edcfbbe)
          06092518033D

 37 29  0     0  0            999 V2000
    1.0697   -0.7402    2.2235 N   0  0  0  0  0  0  0  0  0  0  0  0
    0.2066   -0.1027    1.2117 C   0  0  0  0  0  0  0  0  0  0  0  0
    1.0528    0.5264    0.1031 C   0  0  0  0  0  0  0  0  0  0  0  0
    0.2795    0.6259   -1.2081 C   0  0  0  0  0  0  0  0  0  0  0  0
    0.1370   -0.7224   -1.9385 C   0  0  0  0  0  0  0  0  0  0  0  0
    0.9379   -1.6427   -1.6561 O   0  0  0  0  0  0  0  0  0  0  0  0
   -0.7660   -0.8118   -2.7993 O   0  0  0  0  0  0  0  0  0  0  0  0
    1.5174   -1.5827    1.7657 H   0  0  0  0  0  0  0  0  0  0  0  0
    1.7930   -0.0952    2.5433 H   0  0  0  0  0  0  0  0  0  0  0  0
   -0.4223    0.6551    1.6789 H   0  0  0  0  0  0  0  0  0  0  0  0
   -0.4381   -0.8698    0.7798 H   0  0  0  0  0  0  0  0  0  0  0  0
    1.9298   -0.0953   -0.0872 H   0  0  0  0  0  0  0  0  0  0  0  0
    1.3897    1.5209    0.3960 H   0  0  0  0  0  0  0  0  0  0  0  0
   -0.7237    1.0313   -1.0672 H   0  0  0  0  0  0  0  0  0  0  0  0
    0.8006    1.2806   -1.9120 H   0  0  0  0  0  0  0  0  0  0  0  0
    0.5183   -1.0628    3.0486 H   0  0  0  0  0  0  0  0  0  0  0  0
   -0.2679   -1.5788    4.4859 O   0  0  0  0  0  0  0  0  0  0  0  0
   -1.1977   -1.8214    4.4834 H   0  0  0  0  0  0  0  0  0  0  0  0
    0.2057   -2.2474    4.9906 H   0  0  0  0  0  0  0  0  0  0  0  0
   -2.1209   -3.1504   -3.0543 O   0  0  0  0  0  0  0  0  0  0  0  0
   -1.6331   -2.3029   -2.9717 H   0  0  0  0  0  0  0  0  0  0  0  0
   -2.4331   -3.1880   -3.9632 H   0  0  0  0  0  0  0  0  0  0  0  0
   -0.7292   -5.0779   -1.5754 O   0  0  0  0  0  0  0  0  0  0  0  0
   -1.3242   -4.4706   -2.0478 H   0  0  0  0  0  0  0  0  0  0  0  0
    0.1552   -4.8991   -1.9472 H   0  0  0  0  0  0  0  0  0  0  0  0
    3.7213   -4.4250   -0.6220 O   0  0  0  0  0  0  0  0  0  0  0  0
    3.1151   -4.4705   -1.3775 H   0  0  0  0  0  0  0  0  0  0  0  0
    3.2470   -3.8709    0.0247 H   0  0  0  0  0  0  0  0  0  0  0  0
   -0.2999   -4.4568    1.0327 O   0  0  0  0  0  0  0  0  0  0  0  0
   -0.1752   -5.3048    1.4688 H   0  0  0  0  0  0  0  0  0  0  0  0
   -0.5349   -4.6684    0.1040 H   0  0  0  0  0  0  0  0  0  0  0  0
    1.8214   -2.8203    0.7006 O   0  0  0  0  0  0  0  0  0  0  0  0
    1.0952   -3.4624    0.8724 H   0  0  0  0  0  0  0  0  0  0  0  0
    1.5835   -2.4177   -0.1539 H   0  0  0  0  0  0  0  0  0  0  0  0
    1.6586   -4.0884   -2.6129 O   0  0  0  0  0  0  0  0  0  0  0  0
    1.3841   -3.1866   -2.3371 H   0  0  0  0  0  0  0  0  0  0  0  0
    1.8410   -4.0398   -3.5551 H   0  0  0  0  0  0  0  0  0  0  0  0
  1  2  1  0  0  0  0
  2  3  1  0  0  0  0
  3  4  1  0  0  0  0
  4  5  1  0  0  0  0
  5  6  4  0  0  0  0
  5  7  4  0  0  0  0
  1  8  1  0  0  0  0
  1  9  1  0  0  0  0
  2 10  1  0  0  0  0
  2 11  1  0  0  0  0
  3 12  1  0  0  0  0
  3 13  1  0  0  0  0
  4 14  1  0  0  0  0
  4 15  1  0  0  0  0
  1 16  1  0  0  0  0
 17 18  1  0  0  0  0
 17 19  1  0  0  0  0
 20 21  1  0  0  0  0
 20 22  1  0  0  0  0
 23 24  1  0  0  0  0
 23 25  1  0  0  0  0
 26 27  1  0  0  0  0
 26 28  1  0  0  0  0
 29 30  1  0  0  0  0
 29 31  1  0  0  0  0
 32 33  1  0  0  0  0
 32 34  1  0  0  0  0
 35 36  1  0  0  0  0
 35 37  1  0  0  0  0
M  END
