 xtb: 6.7.1 (edcfbbe)
          06092518083D

 37 29  0     0  0            999 V2000
    0.1247   -1.6972    0.7065 N   0  0  0  0  0  0  0  0  0  0  0  0
   -0.2373   -0.2741    0.8639 C   0  0  0  0  0  0  0  0  0  0  0  0
   -1.3910    0.1079   -0.0588 C   0  0  0  0  0  0  0  0  0  0  0  0
   -0.9801    0.2150   -1.5332 C   0  0  0  0  0  0  0  0  0  0  0  0
   -1.0350   -1.0984   -2.3458 C   0  0  0  0  0  0  0  0  0  0  0  0
   -1.4564   -1.0304   -3.5144 O   0  0  0  0  0  0  0  0  0  0  0  0
   -0.6294   -2.1558   -1.7947 O   0  0  0  0  0  0  0  0  0  0  0  0
   -0.4626   -2.3010    1.2799 H   0  0  0  0  0  0  0  0  0  0  0  0
   -0.0567   -1.9610   -0.3103 H   0  0  0  0  0  0  0  0  0  0  0  0
   -0.5153   -0.0809    1.8998 H   0  0  0  0  0  0  0  0  0  0  0  0
    0.6364    0.3289    0.6104 H   0  0  0  0  0  0  0  0  0  0  0  0
   -1.7723    1.0806    0.2535 H   0  0  0  0  0  0  0  0  0  0  0  0
   -2.2056   -0.6135    0.0351 H   0  0  0  0  0  0  0  0  0  0  0  0
    0.0465    0.5829   -1.6084 H   0  0  0  0  0  0  0  0  0  0  0  0
   -1.6243    0.9188   -2.0639 H   0  0  0  0  0  0  0  0  0  0  0  0
    1.1310   -1.8595    0.9288 H   0  0  0  0  0  0  0  0  0  0  0  0
    3.3868   -2.4668    3.9234 O   0  0  0  0  0  0  0  0  0  0  0  0
    4.2516   -2.1780    4.2299 H   0  0  0  0  0  0  0  0  0  0  0  0
    2.7461   -2.2068    4.5931 H   0  0  0  0  0  0  0  0  0  0  0  0
    4.2065    2.6570    1.5597 O   0  0  0  0  0  0  0  0  0  0  0  0
    5.1286    2.6779    1.2823 H   0  0  0  0  0  0  0  0  0  0  0  0
    3.7974    3.4619    1.2230 H   0  0  0  0  0  0  0  0  0  0  0  0
    3.5893    4.2173   -3.3978 O   0  0  0  0  0  0  0  0  0  0  0  0
    2.6529    4.2218   -3.6191 H   0  0  0  0  0  0  0  0  0  0  0  0
    3.8917    3.3068   -3.4795 H   0  0  0  0  0  0  0  0  0  0  0  0
    3.8663    2.4235    4.3908 O   0  0  0  0  0  0  0  0  0  0  0  0
    4.0099    2.4510    3.4297 H   0  0  0  0  0  0  0  0  0  0  0  0
    2.9145    2.4851    4.5184 H   0  0  0  0  0  0  0  0  0  0  0  0
    2.7583    0.5814    0.2096 O   0  0  0  0  0  0  0  0  0  0  0  0
    2.9758   -0.2998    0.5513 H   0  0  0  0  0  0  0  0  0  0  0  0
    3.2767    1.2095    0.7369 H   0  0  0  0  0  0  0  0  0  0  0  0
    2.8078   -2.1073    1.2526 O   0  0  0  0  0  0  0  0  0  0  0  0
    3.1859   -2.8552    0.7818 H   0  0  0  0  0  0  0  0  0  0  0  0
    3.0029   -2.2482    2.1998 H   0  0  0  0  0  0  0  0  0  0  0  0
    4.0575   -2.8082   -3.9676 O   0  0  0  0  0  0  0  0  0  0  0  0
    3.2918   -3.3437   -4.1940 H   0  0  0  0  0  0  0  0  0  0  0  0
    3.7275   -1.9377   -3.7286 H   0  0  0  0  0  0  0  0  0  0  0  0
  1  2  1  0  0  0  0
  2  3  1  0  0  0  0
  3  4  1  0  0  0  0
  4  5  1  0  0  0  0
  5  6  2  0  0  0  0
  5  7  4  0  0  0  0
  1  8  1  0  0  0  0
  1  9  1  0  0  0  0
  2 10  1  0  0  0  0
  2 11  1  0  0  0  0
  3 12  1  0  0  0  0
  3 13  1  0  0  0  0
  4 14  1  0  0  0  0
  4 15  1  0  0  0  0
  1 16  1  0  0  0  0
 17 18  1  0  0  0  0
 17 19  1  0  0  0  0
 20 21  1  0  0  0  0
 20 22  1  0  0  0  0
 23 24  1  0  0  0  0
 23 25  1  0  0  0  0
 26 27  1  0  0  0  0
 26 28  1  0  0  0  0
 29 30  1  0  0  0  0
 29 31  1  0  0  0  0
 32 33  1  0  0  0  0
 32 34  1  0  0  0  0
 35 36  1  0  0  0  0
 35 37  1  0  0  0  0
M  END
