         616
  Built with Packmol                                             
  N           -0.443767       -0.471812        1.745205
  C            0.693510        0.104360        1.026899
  C            0.252325        0.999585       -0.146245
  C           -0.573823        0.306802       -1.244857
  C            0.172762       -0.788129       -1.957711
  O            0.408222       -0.687945       -3.151027
  O            0.546344       -1.903284       -1.303739
  H           -0.087472       -1.004114        2.571270
  H           -1.081184        0.285863        2.081386
  H            1.280979        0.732860        1.731174
  H            1.368045       -0.703734        0.677139
  H            1.158667        1.443130       -0.611175
  H           -0.355788        1.834342        0.265274
  H           -1.517364       -0.100802       -0.829235
  H           -0.852734        1.086771       -1.985872
  H           -0.968720       -1.133893        1.131516
  O            1.339855       -3.484548        3.867698
  H            0.897206       -2.810708        3.292708
  H            0.856114       -3.431026        4.730104
  O           -5.014103       -5.439154        3.651545
  H           -5.713519       -5.983008        3.209221
  H           -5.086324       -5.674616        4.610688
  O            4.154932       -3.185023        7.375100
  H            3.387496       -3.716043        7.043934
  H            3.816484       -2.255055        7.410089
  O           -5.279843        2.443088        0.882860
  H           -6.183629        2.107095        0.657268
  H           -5.440253        3.329184        1.294825
  O            5.271029        4.873028        8.547977
  H            4.281062        4.891986        8.562724
  H            5.526272        5.662612        8.007587
  O            1.240472        5.624262        8.352480
  H            0.916600        4.880858        7.784089
  H            2.135721        5.331219        8.657877
  O           -5.107206       -0.596557        3.905535
  H           -5.019223       -1.553260        4.145513
  H           -6.081747       -0.455758        3.800375
  O            2.910109       -0.079409       -9.039250
  H            3.458839        0.725523       -8.861510
  H            3.370549       -0.806636       -8.549609
  O            1.896395       -2.762995        8.338449
  H            1.301226       -2.179487        8.873149
  H            2.580020       -3.076887        8.982454
  O            1.426149        3.032660        5.897652
  H            1.530057        4.010128        5.777770
  H            0.760068        2.768303        5.214231
  O            0.300479       -5.548023       -5.504501
  H           -0.220507       -5.952274       -6.243260
  H           -0.337929       -5.497873       -4.749165
  O            4.522573        0.877022       -3.228303
  H            5.363766        0.368289       -3.109160
  H            4.153995        0.549393       -4.087036
  O           -3.752522        2.592170        2.454014
  H           -3.718749        3.564307        2.639539
  H           -3.114175        2.194347        3.098113
  O           -5.559980        4.110907        6.337713
  H           -6.027931        4.943314        6.599878
  H           -5.535909        3.568474        7.165844
  O           -2.199826       -2.155687       -0.471964
  H           -2.955375       -2.118013       -1.110978
  H           -1.477490       -2.616216       -0.968711
  O           -4.881178        3.097410       -2.001266
  H           -5.477396        2.864495       -1.245697
  H           -5.113440        2.446401       -2.710389
  O           -5.174600       -4.515836        6.474531
  H           -5.873648       -5.208730        6.583350
  H           -5.620293       -3.670728        6.734845
  O            3.344685       -3.018092        4.537996
  H            3.227302       -3.940923        4.877428
  H            3.852699       -2.554440        5.250430
  O           -2.129641       -5.601147        4.275844
  H           -2.989460       -6.041876        4.058863
  H           -1.438814       -6.225915        3.939634
  O            5.728015        3.539635       -3.147830
  H            5.870334        2.570221       -3.004329
  H            5.301367        3.598435       -4.039529
  O           -5.636561       -3.499552       -7.563150
  H           -4.906965       -4.119819       -7.311018
  H           -5.534555       -3.380952       -8.540975
  O           -5.791974        0.321678        1.787162
  H           -6.178968       -0.055847        0.957510
  H           -4.831349        0.443405        1.579811
  O            6.087026        1.018508        1.157996
  H            5.931070        1.901090        1.579111
  H            5.215854        0.552891        1.227805
  O           -1.269923       -3.828296       -3.661011
  H           -2.165999       -3.439675       -3.824205
  H           -0.878178       -3.259273       -2.951531
  O           -3.505097        3.315066       -8.279844
  H           -3.680378        2.573194       -7.647774
  H           -4.030089        3.082813       -9.086724
  O            2.476068       -1.338300        3.415525
  H            2.373687       -1.521692        2.447798
  H            1.791431       -0.650182        3.611429
  O           -5.562629        5.944762       -7.051120
  H           -6.052121        5.567022       -6.277607
  H           -6.193696        5.859922       -7.809519
  O            3.307288       -4.101454        2.662096
  H            2.614632       -3.638095        2.127179
  H            3.042204       -5.055279        2.638413
  O           -4.972287       -1.335829       -0.752000
  H           -5.867253       -1.653793       -0.471740
  H           -4.491689       -1.167327        0.097262
  O           -5.674478        1.437710        5.614646
  H           -6.169064        2.265641        5.389866
  H           -5.585431        1.461844        6.600598
  O            4.848363       -4.972092        3.837815
  H            5.224747       -4.080356        4.046988
  H            5.640759       -5.548389        3.694283
  O           -2.256550       -1.985029       -5.767151
  H           -2.883502       -1.334722       -6.172912
  H           -1.472791       -1.984864       -6.372408
  O            6.007035        5.620880       -1.180678
  H            5.540527        5.752106       -0.317104
  H            6.183970        4.647419       -1.221668
  O           -6.392005       -3.254155        4.082625
  H           -5.594956       -3.562992        4.582570
  H           -6.617727       -4.010086        3.484101
  O           -5.487835       -5.181148       -2.983331
  H           -5.353751       -6.011999       -3.505172
  H           -5.348873       -4.451607       -3.638367
  O           -2.298062       -5.764280       -7.632648
  H           -3.016716       -5.193984       -7.259941
  H           -2.272970       -5.534213       -8.595484
  O           -3.029635        0.123737        3.955000
  H           -2.040375        0.086987        3.980000
  H           -3.256748        0.042086        2.994601
  O           -3.161934        2.577828       -5.550816
  H           -2.530996        3.332662       -5.663752
  H           -3.074150        2.321481       -4.598349
  O            3.160391        5.282086        6.745434
  H            3.961007        5.803811        6.485766
  H            2.397407        5.877057        6.534534
  O            1.467008       -2.429598       -6.406175
  H            0.676499       -1.863323       -6.593362
  H            2.118651       -1.814470       -5.984758
  O            3.886301        5.755670       -1.720358
  H            2.999334        5.826561       -2.154955
  H            4.110860        4.792511       -1.770458
  O            0.546297       -2.573987       -4.443307
  H            1.406758       -2.380030       -3.993198
  H            0.615430       -3.524690       -4.711628
  O            4.702098       -5.095046        6.011030
  H            5.634822       -5.383351        5.845149
  H            4.278338       -5.870729        6.457522
  O            5.610982        4.146880        1.715594
  H            5.898493        5.094151        1.740619
  H            5.709865        3.882585        0.766392
  O            5.848960       -3.861424       -6.436942
  H            5.889084       -3.165421       -5.733677
  H            4.884147       -3.953540       -6.640075
  O            3.527287       -2.990914       -8.477639
  H            3.212722       -3.920084       -8.612924
  H            3.293839       -2.784320       -7.537728
  O            0.114096        1.584006        3.374766
  H           -0.806628        1.927609        3.496484
  H            0.124592        0.723537        3.864762
  O            1.530239        5.966554       -4.733017
  H            2.401648        5.968961       -4.262643
  H            1.375278        5.016012       -4.963387
  O           -5.759746        0.201717       -2.476914
  H           -6.244903       -0.657616       -2.394580
  H           -6.063983        0.576540       -3.341531
  O            1.188379       -5.337165       -7.789806
  H            1.438343       -5.190074       -8.736639
  H            1.562703       -4.555880       -7.310133
  O           -5.490967        5.470333        1.192689
  H           -4.807470        6.165130        1.017472
  H           -5.436415        5.309076        2.168205
  O            3.089522        5.900954        4.481600
  H            3.108187        4.919708        4.613581
  H            2.154327        6.098753        4.222951
  O           -3.536412        5.279929       -3.232901
  H           -3.024016        5.578962       -2.440032
  H           -3.236378        5.878563       -3.962441
  O           -3.515272       -3.924888        4.050212
  H           -3.375988       -2.944500        4.043084
  H           -3.574412       -4.160102        5.010311
  O           -0.566905       -5.236594        6.424674
  H           -0.532289       -4.871669        5.504759
  H           -0.445137       -6.212528        6.309179
  O           -4.087787        0.266803       -4.224297
  H           -3.203037        0.168237       -4.658019
  H           -3.900724        0.765795       -3.389655
  O           -4.621468       -3.283240       -5.322557
  H           -3.684736       -3.597084       -5.390708
  H           -4.657365       -2.481571       -5.902774
  O            1.240439        0.737899        5.905025
  H            1.722602        1.059893        6.707801
  H            1.864023        0.910236        5.155322
  O            3.436158        2.193754        5.976505
  H            4.234725        2.135130        5.393871
  H            3.743203        1.851324        6.853476
  O           -2.058187        1.174643       -8.615696
  H           -2.879773        1.233804       -9.165340
  H           -1.738199        2.109214       -8.546425
  O            5.082258       -5.068247       -8.789797
  H            5.510893       -5.491916       -8.004057
  H            5.376159       -4.123312       -8.753295
  O            5.187081        5.514134        4.718506
  H            5.852473        5.829081        5.380830
  H            5.669666        5.532541        3.853992
  O            5.496112       -1.206025        8.318671
  H            5.759431       -2.155949        8.413108
  H            5.038313       -0.989690        9.169689
  O            5.610674       -3.426852       -0.108380
  H            6.289803       -2.710692       -0.189057
  H            5.105494       -3.386688       -0.959141
  O           -4.862834       -5.415905       -5.547972
  H           -5.820561       -5.181706       -5.640289
  H           -4.706988       -6.102224       -6.244600
  O           -4.053483       -2.260114        5.976721
  H           -3.470395       -1.521849        5.667558
  H           -4.164878       -2.098457        6.947325
  O            5.965541       -2.312519        5.574211
  H            5.803787       -3.211855        5.955843
  H            5.572157       -1.688312        6.234687
  O            5.772474       -5.432843        7.995541
  H            5.919738       -5.523711        8.970563
  H            5.815834       -4.457844        7.827881
  O            5.323720       -0.905860       -1.330020
  H            6.063777       -1.141429       -1.944375
  H            5.775013       -0.616924       -0.497275
  O           -1.652387        3.715249        1.258611
  H           -1.599849        2.822007        1.682839
  H           -1.683465        3.526977        0.286911
  O            4.961160       -2.005160        3.463014
  H            4.568944       -1.182424        3.075866
  H            5.811068       -2.130375        2.970479
  O           -4.013150       -5.655234       -1.189224
  H           -3.415859       -6.052550       -0.506587
  H           -3.734407       -6.079049       -2.039692
  O            3.400681        4.897696       -8.544494
  H            2.586024        4.624513       -9.036750
  H            3.300097        5.875108       -8.421365
  O            1.851715       -5.515330        4.413739
  H            2.688516       -6.023912        4.561113
  H            1.142138       -6.087741        4.800339
  O            1.203773        3.293440        0.526311
  H            1.897885        3.788666        1.029868
  H            0.539652        3.983672        0.275041
  O           -3.948173        5.605079        6.408133
  H           -3.406736        5.959508        5.658575
  H           -3.517743        4.743813        6.639570
  O            0.369502        3.749987        3.389562
  H            0.230088        3.675179        2.412026
  H            1.153481        4.347645        3.483343
  O            2.246694       -5.986742       -1.284243
  H            1.833577       -6.425715       -2.069895
  H            3.220176       -6.117024       -1.410622
  O            2.762201        2.967709        3.126038
  H            2.011350        2.457804        2.730019
  H            2.631528        2.882466        4.103929
  O           -5.998057        5.049362       -4.161827
  H           -5.483710        4.373382       -3.652799
  H           -5.386593        5.825107       -4.232154
  O           -2.001330        5.648261       -0.010321
  H           -2.800320        6.172260       -0.270418
  H           -1.243505        6.124771       -0.433702
  O           -0.937982        1.897869       -4.438749
  H           -0.974635        2.470631       -3.631773
  H           -1.282110        1.020126       -4.135838
  O            5.242767       -2.828412       -3.056946
  H            5.772484       -3.653936       -3.193039
  H            5.539559       -2.221063       -3.780586
  O           -3.463198       -2.868289       -8.368033
  H           -3.013431       -3.048107       -7.504328
  H           -3.430936       -3.733112       -8.849335
  O           -1.625657       -4.865515       -1.688507
  H           -2.434876       -4.325357       -1.872912
  H           -1.647757       -5.585456       -2.368073
  O           -3.571232       -5.961557        6.176421
  H           -4.014389       -6.267318        7.007525
  H           -2.602898       -6.027834        6.372758
  O            0.814710        5.841333       -2.231522
  H            0.735829        5.472827       -1.315775
  H            1.077958        5.066380       -2.788981
  O            4.700338       -1.791129        1.005703
  H            4.326047       -2.591351        1.453098
  H            3.951091       -1.143898        0.987398
  O            0.177024        3.763779       -6.289164
  H           -0.420853        3.746399       -5.499954
  H            0.181181        2.829682       -6.617887
  O           -5.814641        2.103079        3.034542
  H           -5.193732        1.517680        3.536928
  H           -5.672848        3.004085        3.420154
  O           -1.257456       -4.102728       -6.721366
  H           -1.629458       -4.093696       -5.803682
  H           -0.320465       -3.801485       -6.612222
  O            4.689748       -5.576116       -5.249485
  H            5.239890       -5.340383       -4.460572
  H            5.338810       -5.932358       -5.907074
  O           -0.970116       -5.399748        1.162948
  H           -1.387491       -6.075512        1.754346
  H           -1.635406       -5.254477        0.443992
  O            0.915928       -5.230852        2.226890
  H            1.159045       -5.629844        1.353786
  H            0.535065       -5.983208        2.746040
  O            5.811569        0.951621        6.304036
  H            6.197130        0.295146        6.937277
  H            5.916684        1.825431        6.757929
  O            0.173761       -4.459204       -0.496669
  H            0.227447       -5.435214       -0.655201
  H            1.099368       -4.194185       -0.265088
  O           -2.251038       -3.937233        6.723491
  H           -2.125748       -2.973098        6.535456
  H           -3.155900       -3.996875        7.121336
  O            1.124871        2.513001       -4.653001
  H            1.840595        2.891826       -5.222949
  H            0.995500        3.185306       -3.937542
  O           -3.789212       -3.249773        0.555524
  H           -4.748251       -3.323755        0.320190
  H           -3.348081       -3.960186        0.025119
  O            5.797634       -5.085659        1.312309
  H            5.198097       -5.819379        1.600096
  H            5.550798       -4.321729        1.892046
  O           -1.435166        5.265351        8.775348
  H           -2.308603        5.378726        8.322728
  H           -0.868346        5.988165        8.405391
  O            3.911989        5.151166        2.604881
  H            2.937556        5.055494        2.456764
  H            4.096954        6.107920        2.428749
  O           -1.285351        3.832875        7.176233
  H           -1.992365        3.244311        6.809715
  H           -0.437041        3.392188        6.917822
  O           -1.684729        1.133681        5.825381
  H           -0.771253        1.465997        6.014429
  H           -2.081272        1.821251        5.233255
  O            2.047706        2.400991       -7.641591
  H            2.172775        2.447531       -8.622816
  H            2.152549        3.336241       -7.333485
  O           -5.616368       -1.283628       -4.374537
  H           -5.735685       -0.754115       -5.202782
  H           -6.226166       -2.056150       -4.483947
  O           -5.228894        5.617287        4.305327
  H           -5.947134        4.938061        4.363577
  H           -5.462580        6.285490        4.997792
  O            0.302650        5.980617        1.060184
  H            1.099333        5.721394        1.588115
  H           -0.450257        5.512183        1.500993
  O            0.411017       -4.607243        8.255321
  H            0.514169       -4.208270        9.155760
  H            0.181421       -5.554800        8.428627
  O           -4.098956        2.800258        4.937759
  H           -4.143082        3.772027        4.752480
  H           -3.934872        2.740737        5.912514
  O            3.702661        2.354058       -6.199763
  H            3.972596        2.356155       -5.247008
  H            4.210077        1.603617       -6.599737
  O           -5.440459       -5.507007       -8.898284
  H           -4.468842       -5.646649       -8.767626
  H           -5.856999       -5.882037       -8.081914
  O            0.468532        3.969207       -8.522689
  H            0.468409        4.461633       -9.381833
  H            0.162059        3.057728       -8.759106
  O           -2.084641       -0.975088       -8.174694
  H           -3.039929       -0.737735       -8.282856
  H           -1.700624       -0.878206       -9.082306
  O            2.531113       -2.059118       -0.606279
  H            3.474584       -1.982635       -0.897180
  H            2.565309       -2.636771        0.197313
  O           -1.250207       -3.607000       -8.825976
  H           -0.509870       -4.258850       -8.738780
  H           -0.897190       -2.775023       -8.421247
  O            2.064364        1.224696       -3.058842
  H            2.019388        0.705485       -3.900868
  H            1.119655        1.328861       -2.780836
  O            5.731707       -5.377577       -1.567590
  H            5.078763       -5.509292       -2.300342
  H            5.217060       -5.558616       -0.741166
  O            5.573951        0.233223       -5.610698
  H            5.906438        1.032073       -5.129137
  H            5.950932       -0.533248       -5.109677
  O            2.841710        3.273046        8.628639
  H            2.777695        2.293251        8.757150
  H            2.540323        3.421303        7.697082
  O            3.494095       -5.522042       -7.162693
  H            2.949020       -5.992597       -6.482927
  H            3.316537       -6.011273       -8.005152
  O           -0.470228       -0.807375        5.267095
  H            0.058385       -1.386123        4.661926
  H           -1.300082       -1.319861        5.438305
  O            3.821114        1.081939        2.814990
  H            3.318635        0.421641        2.274498
  H            3.478231        0.960978        3.736084
  O           -1.525108        4.724574       -8.177514
  H           -1.616041        4.034069       -7.473565
  H           -1.651220        4.231173       -9.026787
  O           -5.580736        0.957231       -8.088383
  H           -4.621473        0.720236       -8.023124
  H           -5.610240        1.691769       -8.751856
  O            5.593507        2.185420       -0.583671
  H            5.621924        1.422136       -1.213910
  H            4.992708        2.842652       -1.016913
  O           -5.434658        3.827170       -7.446477
  H           -5.694681        3.012998       -6.946356
  H           -5.947441        3.773366       -8.291919
  O           -3.719692       -4.902602        2.006778
  H           -3.541015       -5.812784        1.660001
  H           -2.824975       -4.484307        2.078356
  O           -5.353246        5.017358       -0.911062
  H           -4.765341        5.779784       -1.142761
  H           -5.992740        4.959143       -1.664900
  O            0.075900        1.051915       -7.921486
  H           -0.332041        0.170037       -7.730476
  H            0.603069        0.907784       -8.747278
  O           -5.549438        1.510637       -5.262160
  H           -5.243034        2.377921       -4.895354
  H           -4.870083        1.275360       -5.943140
  O           -0.175933       -2.336904        7.269663
  H            0.009735       -3.132508        6.710062
  H           -0.632470       -2.698097        8.070741
  O           -0.814672        5.066167       -3.891909
  H           -1.056545        5.836048       -3.317982
  H           -1.611891        4.479215       -3.868603
  O           -0.271466        5.220242        5.817987
  H            0.441182        5.865512        5.580562
  H           -0.973015        5.772093        6.246826
  O            5.032481        2.805909        3.352857
  H            4.687324        3.591248        3.847549
  H            5.897092        2.598476        3.788783
  O           -5.372758        5.904470        8.408967
  H           -4.389592        5.907948        8.527219
  H           -5.661881        5.025225        8.761028
  O            0.497014       -0.011248       -5.250636
  H            0.422690        0.817109       -5.788141
  H           -0.378524       -0.459840       -5.363821
  O           -5.621066       -2.605836        2.161372
  H           -5.213286       -1.714556        2.020140
  H           -4.878729       -3.167637        2.498906
  O           -1.409575       -3.698751        3.496618
  H           -1.228488       -3.178192        4.319318
  H           -0.626414       -4.297757        3.404622
  O           -4.720604       -4.314692        8.600183
  H           -5.493050       -3.764512        8.885209
  H           -5.061422       -5.244410        8.609187
  O           -1.472612        3.797130        4.499290
  H           -1.797733        3.854360        3.565678
  H           -2.092907        4.372627        5.013731
  O           -6.074472       -1.495292        6.071835
  H           -5.540566       -0.661538        6.051608
  H           -6.290299       -1.628531        7.029060
  O           -3.770412       -2.110858       -3.139348
  H           -3.595604       -1.859161       -4.080996
  H           -4.174288       -1.301164       -2.736990
  O            1.550254       -1.987492       -8.548241
  H            1.213250       -2.910979       -8.667456
  H            0.759903       -1.412489       -8.707399
  O           -2.698619        2.205272       -2.324506
  H           -2.827704        3.128221       -2.659339
  H           -2.469238        2.318232       -1.367825
  O            3.378091        5.678886        0.411706
  H            3.757164        4.765159        0.456626
  H            2.506084        5.563637       -0.043194
  O            3.088884        3.083440       -3.485503
  H            2.921806        4.055560       -3.397870
  H            3.719067        2.872831       -2.751251
  O           -1.977918        0.637831       -6.360692
  H           -1.525992        1.509405       -6.490045
  H           -2.895167        0.780371       -6.705582
  O            4.319149       -1.750593       -5.902698
  H            4.089407       -1.020539       -6.531069
  H            3.997656       -1.430625       -5.022427
  O            3.527506       -3.968971       -2.317049
  H            3.124762       -3.196360       -2.787666
  H            3.071626       -3.989272       -1.438201
  O            6.196854        3.540183       -6.527902
  H            6.159208        2.554298       -6.612908
  H            5.310286        3.792005       -6.165695
  O           -3.826312        3.767865       -0.073156
  H           -3.369719        4.170757       -0.854060
  H           -3.645706        4.395742        0.670997
  O            5.396912        1.788882        8.867465
  H            4.869438        1.030792        8.510140
  H            4.925171        2.595591        8.539906
  O            2.187568        3.850371       -1.354004
  H            1.649458        3.182889       -1.849499
  H            2.854429        3.312332       -0.857592
  O           -5.359998       -5.410080        0.500817
  H           -5.888704       -5.086938       -0.271621
  H           -5.776242       -4.973776        1.286306
  O            2.988596       -4.999812        0.449624
  H            3.836759       -4.496838        0.540439
  H            3.227668       -5.932905        0.679393
  O           -1.487664        1.147488        8.948828
  H           -1.496570        1.612522        8.074599
  H           -2.435100        1.142481        9.236843
  O           -2.810762        1.142177        1.191992
  H           -3.247141        1.740709        0.534768
  H           -2.839589        0.246952        0.769673
  O            5.540775        0.476388        4.193317
  H            5.873698        0.504138        3.261114
  H            5.910111       -0.364439        4.563741
  O            2.160838       -5.370749        6.555910
  H            1.616922       -6.111883        6.923995
  H            1.510313       -4.641629        6.395246
  O            2.687954        0.169674        8.457399
  H            2.937053       -0.756249        8.704841
  H            1.748594        0.262307        8.756792
  O            3.428574       -0.196254        6.202980
  H            3.918786       -0.397861        5.366524
  H            4.118005       -0.243887        6.912225
  O            5.717844        1.052004       -8.138954
  H            5.313161        0.212093       -7.805200
  H            5.579251        1.021850       -9.119003
  O           -0.570419        3.917280       -2.049642
  H           -0.463784        3.132907       -1.454664
  H           -1.367035        4.388886       -1.698066
  O            4.607376        5.638631       -4.082352
  H            5.299004        5.654682       -3.373831
  H            5.119716        5.583601       -4.927984
  O            5.670355        4.003303        6.586262
  H            4.717516        3.775261        6.730155
  H            5.867272        3.680392        5.671076
  O            2.490315        0.379918       -6.955480
  H            1.720636       -0.190074       -7.207103
  H            2.544198        0.303005       -5.969683
  O           -1.759735       -1.283774       -2.850378
  H           -1.516384       -1.381005       -3.805332
  H           -2.211933       -0.404357       -2.797881
  O            1.222953       -4.522694       -2.888620
  H            0.375646       -5.023549       -2.779870
  H            1.109939       -3.718071       -2.322561
  O           -4.235404        1.068692       -1.270997
  H           -3.609606        0.301354       -1.257567
  H           -4.905774        0.854342       -0.574382
  O            3.081260       -3.383986       -4.947808
  H            4.025357       -3.562992       -4.708542
  H            2.908266       -3.967755       -5.728769
  O           -4.995481       -1.429380       -7.777470
  H           -5.821676       -1.089479       -7.350292
  H           -5.127036       -1.257513       -8.743787
  O           -3.437614        5.375412       -8.949951
  H           -4.398803        5.222140       -8.767648
  H           -3.204297        6.166692       -8.402181
  O            2.976922       -5.275549       -3.933774
  H            3.391170       -6.100850       -3.576161
  H            2.211468       -5.596175       -4.474044
  O            5.380675       -2.211431       -7.770307
  H            5.337646       -1.778184       -8.659721
  H            6.025183       -1.661686       -7.257469
  O           -0.029798       -3.430954        1.453224
  H            0.548130       -2.682367        1.159579
  H           -0.896238       -3.266974        1.002663
  O           -2.479407       -2.305146        2.172457
  H           -2.055226       -1.760832        2.882670
  H           -3.046457       -1.664310        1.674062
  O           -1.219049        5.882747       -6.358526
  H           -0.360096        5.903522       -5.866206
  H           -1.834578        5.386054       -5.762678
  O           -2.478855       -1.559727        8.167318
  H           -2.752120       -2.417353        8.580130
  H           -3.028588       -0.876603        8.627479
  O            1.644308       -1.419047        6.102661
  H            1.959396       -2.352335        6.204169
  H            1.597567       -1.070884        7.028518
  O           -1.957750       -5.343352        8.355490
  H           -1.682703       -4.475882        8.745947
  H           -2.878432       -5.485743        8.691172
  O           -5.497146       -3.461292       -1.680775
  H           -5.709810       -2.763188       -2.350129
  H           -4.527690       -3.627633       -1.795228
  O            3.801402        2.101096        0.644231
  H            2.845353        1.860174        0.736630
  H            3.958692        2.770112        1.357175
  O            3.732835        0.479037       -0.821846
  H            3.443227        1.260685       -1.356417
  H            2.890268        0.084512       -0.482665
  O           -0.149736       -0.095535        7.808544
  H           -0.976642       -0.298350        7.302873
  H           -0.227997       -0.631689        8.637415
  O           -5.495479       -0.742336        8.870890
  H           -5.065064       -1.633737        8.843352
  H           -5.061911       -0.234778        8.139442
  O           -0.614227        5.639171        3.677107
  H           -1.287211        6.197483        4.141855
  H            0.122291        6.265411        3.462682
  O            3.419095        4.830005       -6.383058
  H            3.363386        4.432737       -5.477693
  H            3.335121        5.805028       -6.231755
  O            1.209160        5.925773       -7.934981
  H            1.374623        5.382154       -7.123987
  H            0.225674        6.038222       -7.961889
  O           -5.157560        2.051204        8.649450
  H           -6.041162        1.607568        8.704630
  H           -4.585247        1.543285        9.278011
  O            5.183221        5.525438       -7.451057
  H            5.993867        5.710586       -6.913299
  H            5.507682        5.493728       -8.386114
  O           -2.499810       -5.512705       -4.375865
  H           -2.749630       -5.901474       -5.251685
  H           -3.360235       -5.230014       -3.975405
  O            0.680076        2.935586        8.735750
  H           -0.243012        3.120466        9.042899
  H            0.620110        2.055790        8.285221
  O           -3.235840        3.034469        8.480442
  H           -3.866832        3.792495        8.569081
  H           -2.427147        3.326053        8.971978
  O           -3.974195        5.086939       -5.842682
  H           -4.478065        4.288963       -5.542749
  H           -3.654095        4.851749       -6.749785
  O            3.324388       -5.425439        8.387730
  H            3.904799       -4.776706        8.859831
  H            2.411887       -5.227963        8.717818
  O           -3.356776        5.717856        2.582523
  H           -2.489476        5.486894        2.164124
  H           -3.243509        5.478397        3.536695
  O            4.965232        3.423893       -8.295431
  H            4.331567        2.688983       -8.492882
  H            5.822471        3.125394       -8.691226
  O           -3.416839        0.348240        6.865026
  H           -3.735319        0.569433        5.953843
  H           -3.565324        1.176211        7.387548
  O            2.916919       -1.087954       -3.183142
  H            3.849891       -1.173070       -2.862314
  H            2.403376       -0.812600       -2.382475
