         256
  Built with Packmol                                             
  N           -0.443767       -0.471812        1.745205
  C            0.693510        0.104360        1.026899
  C            0.252325        0.999585       -0.146245
  C           -0.573823        0.306802       -1.244857
  C            0.172762       -0.788129       -1.957711
  O            0.408222       -0.687945       -3.151027
  O            0.546344       -1.903284       -1.303739
  H           -0.087472       -1.004114        2.571270
  H           -1.081184        0.285863        2.081386
  H            1.280979        0.732860        1.731174
  H            1.368045       -0.703734        0.677139
  H            1.158667        1.443130       -0.611175
  H           -0.355788        1.834342        0.265274
  H           -1.517364       -0.100802       -0.829235
  H           -0.852734        1.086771       -1.985872
  H           -0.968720       -1.133893        1.131516
  O           -1.964015       -4.516293       -0.528105
  H           -1.910549       -4.627754        0.454406
  H           -1.079889       -4.814179       -0.860067
  O            0.136809        4.887624        2.937731
  H            0.812740        5.588755        2.758447
  H            0.651270        4.144889        3.343056
  O            2.372929       -3.248055        4.347380
  H            2.845918       -2.476324        3.945729
  H            2.238886       -2.991394        5.294359
  O            2.252813        3.954644       -0.933187
  H            2.944736        4.133935       -0.247834
  H            1.395352        4.013255       -0.441315
  O            2.739442        2.036972        5.783019
  H            2.697121        1.331310        5.089578
  H            2.102285        1.738563        6.479867
  O            3.111455        0.100438        1.235315
  H            3.841813        0.586108        1.695003
  H            3.388919       -0.849725        1.263889
  O           -4.135988        1.209899        4.668210
  H           -4.013652        1.930281        5.336561
  H           -4.396050        0.417563        5.202237
  O            5.171877       -0.159930       -0.100806
  H            4.433725        0.490626       -0.212696
  H            4.992647       -0.857780       -0.780141
  O           -2.547115        0.043461       -2.536404
  H           -2.942013       -0.748369       -2.091801
  H           -3.078400        0.153564       -3.364791
  O            1.165700       -4.105579       -2.584031
  H            0.691975       -4.971089       -2.668223
  H            2.123860       -4.336915       -2.679036
  O            1.569543       -3.025811        2.484919
  H            2.352066       -3.624333        2.384724
  H            1.688337       -2.341804        1.778778
  O           -2.559359        3.464984       -5.743302
  H           -2.754800        3.327453       -4.782314
  H           -2.762679        2.592462       -6.165178
  O            0.985538       -1.290391       -5.776497
  H            1.194736       -2.243464       -5.607681
  H            0.288686       -1.067375       -5.109209
  O            2.569046       -0.296822       -5.073538
  H            2.850632       -1.246044       -5.056298
  H            3.189855        0.134549       -5.713169
  O           -0.593802        5.104441        0.409134
  H           -1.464347        5.236021       -0.044133
  H           -0.678175        5.605994        1.258803
  O           -3.826096        3.171921       -0.838639
  H           -3.546707        4.009690       -0.390648
  H           -4.015531        3.441242       -1.772552
  O            0.953101        1.235722       -3.191581
  H            1.312405        0.860970       -4.034832
  H            1.516765        0.835861       -2.482352
  O           -2.779371        2.602988        3.201752
  H           -2.713370        1.622598        3.324592
  H           -3.656361        2.843648        3.593651
  O           -0.945914       -0.158340        4.682855
  H           -1.070979       -1.067752        4.311452
  H           -0.772106       -0.305659        5.646546
  O           -1.973596       -2.840109        4.516483
  H           -2.648318       -3.562348        4.577586
  H           -1.891401       -2.498405        5.442277
  O           -4.498567        0.904133        1.824396
  H           -4.594226        1.305895        2.724422
  H           -3.527138        0.737170        1.729202
  O           -1.525878       -3.062770       -1.829778
  H           -0.611225       -3.322816       -2.106176
  H           -1.773777       -2.331253       -2.449490
  O           -0.721227        4.427268       -4.108528
  H           -0.850458        4.261306       -5.076188
  H           -1.125783        3.639445       -3.665488
  O            4.635357        2.400462        1.418337
  H            3.943389        3.097892        1.542360
  H            4.766085        2.352241        0.437930
  O            2.668375        4.304040       -3.580999
  H            2.330836        5.234881       -3.595595
  H            2.936913        4.122807       -4.516764
  O           -0.790908        3.494832       -0.760972
  H           -0.949889        3.260394       -1.709853
  H           -1.636704        3.260375       -0.302418
  O           -4.589370        0.687705       -2.168729
  H           -4.835841        1.641033       -2.063706
  H           -5.029287        0.409049       -3.011010
  O            4.061246        1.236750        3.573035
  H            4.056442        2.174885        3.890038
  H            4.453608        0.723320        4.323405
  O           -2.867880       -0.221356        4.082675
  H           -3.622532       -0.286118        3.444775
  H           -3.023801       -0.957016        4.726963
  O            1.057113       -4.937624       -0.702365
  H            0.611677       -5.743811       -0.338688
  H            2.003803       -5.206052       -0.813440
  O           -2.981010       -2.441989       -4.539218
  H           -3.346155       -1.998265       -5.345685
  H           -3.141458       -1.795667       -3.806321
  O           -0.902937       -1.696387       -6.586551
  H           -0.230535       -2.284381       -7.014043
  H           -1.667491       -2.294718       -6.391437
  O           -3.304256        0.140665       -5.351505
  H           -3.072650       -0.211811       -6.247457
  H           -2.637331        0.853556       -5.185347
  O           -2.133848        4.886670       -2.472873
  H           -2.834386        4.457344       -3.025627
  H           -2.617775        5.225109       -1.677961
  O            4.468718        0.562230       -2.210950
  H            3.509364        0.673673       -2.429653
  H            4.765076        1.463798       -1.928177
  O           -1.696084        1.659564        5.045827
  H           -2.120025        2.547547        5.157048
  H           -2.237528        1.053522        5.611659
  O            4.022609       -3.272263       -1.119287
  H            3.800186       -4.100562       -1.614322
  H            4.265784       -2.620018       -1.823599
  O            4.909928       -1.406566        2.436244
  H            4.339241       -0.849571        3.023341
  H            5.313349       -0.763781        1.800091
  O           -4.662016       -1.003114       -1.103642
  H           -4.856726       -1.320197       -2.021333
  H           -4.057829       -1.691061       -0.726415
  O           -1.098242        2.255960       -5.108711
  H           -0.614873        2.475271       -5.944694
  H           -0.389054        1.968568       -4.480165
  O           -3.976928        1.855484       -3.905492
  H           -4.286099        2.755259       -3.630851
  H           -4.418691        1.696786       -4.777429
  O            3.375909        2.346644       -3.710333
  H            3.193416        1.515134       -4.216198
  H            2.660774        2.382926       -3.026317
  O            2.666504        4.716968        1.644356
  H            1.902849        5.110242        1.151632
  H            2.267062        3.983871        2.176924
  O            3.028084       -0.781411       -1.145024
  H            3.097631       -1.586102       -0.572096
  H            2.056504       -0.597233       -1.197220
  O            0.756707        0.710891       -7.243670
  H            0.764978        1.697158       -7.332101
  H            1.399043        0.521815       -6.514104
  O           -3.675429       -2.929901       -2.248238
  H           -3.447120       -3.456102       -1.441022
  H           -3.580864       -3.570838       -2.997151
  O            2.946966       -1.629910       -2.954330
  H            2.402693       -0.826828       -3.152920
  H            2.282582       -2.346855       -2.795596
  O           -2.492805        2.508472       -2.735594
  H           -2.697322        1.947604       -1.945524
  H           -2.050487        1.890664       -3.370638
  O           -1.052474        2.251005        6.844803
  H           -0.586186        1.391723        6.687258
  H           -0.535731        2.913437        6.320614
  O           -2.927942       -2.497511        2.792451
  H           -3.690072       -2.283880        3.387540
  H           -2.313361       -1.727216        2.890166
  O            3.923633        3.601373       -2.067795
  H            4.457395        3.329857       -1.279133
  H            3.835261        4.583877       -1.981252
  O           -0.334512       -4.339865        4.379141
  H           -0.482180       -3.937185        5.271696
  H           -0.268082       -3.565489        3.765511
  O            1.485558        2.754556       -4.660653
  H            1.317207        2.235720       -5.487138
  H            1.024390        3.617817       -4.811377
  O           -3.884691        0.684148       -0.237478
  H           -4.506537        1.442682       -0.101298
  H           -2.982813        1.086320       -0.163412
  O            2.232609       -4.187478       -4.669726
  H            1.262890       -4.091290       -4.845805
  H            2.557019       -3.259065       -4.553884
  O            0.662090        3.191062       -2.891379
  H            0.811705        4.169097       -2.850473
  H            0.983656        2.854120       -2.017492
  O           -0.190715        3.136028        1.774653
  H           -1.000358        3.705892        1.793240
  H            0.489438        3.686370        1.310834
  O           -1.251022        3.741095        3.808619
  H           -0.845257        2.853098        3.643010
  H           -0.848623        4.042532        4.661745
  O            0.293783        1.768329        4.877561
  H            0.942216        2.499083        5.039252
  H            0.732138        0.961236        5.247776
  O            4.564219       -1.095477       -4.001329
  H            4.301196       -0.143584       -4.074332
  H            4.894508       -1.191091       -3.072684
  O           -1.120913       -4.696960       -3.465588
  H           -1.761991       -3.985205       -3.716657
  H           -0.518511       -4.775412       -4.247617
  O            2.563176       -0.084176        3.532448
  H            2.888400       -0.520565        4.359736
  H            2.302089       -0.835070        2.942022
  O           -0.329454        5.460378       -1.837773
  H            0.444173        5.583192       -1.231943
  H           -0.901875        6.251387       -1.672692
  O            1.686822       -1.152768        6.195791
  H            2.054197       -0.234101        6.154583
  H            0.802908       -1.047266        6.629587
  O            2.448127       -1.080352       -7.123446
  H            3.373821       -1.401486       -6.980007
  H            1.950879       -1.882544       -7.423189
  O            2.819161        1.896250        0.407200
  H            2.155142        2.565712        0.709706
  H            3.024928        2.155134       -0.526209
  O            0.803714       -4.343989        1.190382
  H           -0.087584       -4.769581        1.261582
  H            1.444333       -5.080334        1.357761
  O            2.535435        3.868576        5.008937
  H            1.676059        4.359145        5.046709
  H            2.567725        3.494895        4.092459
  O           -1.337734       -3.053251        1.714878
  H           -1.554301       -3.849966        2.261646
  H           -0.376696       -2.887893        1.887145
  O           -1.411034       -0.763200       -3.978237
  H           -1.697490       -0.955409       -4.906466
  H           -1.177720        0.199159       -3.984837
  O           -1.199807        0.274270       -6.753156
  H           -1.672776        1.118391       -6.963803
  H           -0.714258        0.465305       -5.911514
  O           -0.432753       -2.506244       -3.922749
  H           -0.543301       -2.865343       -4.838958
  H            0.535721       -2.595512       -3.736464
  O           -3.464184       -1.247819        1.326653
  H           -2.895892       -0.815565        0.640496
  H           -4.384751       -0.958080        1.104798
  O           -3.070772        2.712972        1.053167
  H           -2.972684        3.601017        1.480209
  H           -2.251195        2.221230        1.312196
  O            3.183428        2.767770       -5.969213
  H            2.615302        3.467908       -6.378665
  H            3.010316        1.958428       -6.512915
  O           -3.637860       -3.175150        0.546423
  H           -2.744455       -2.815206        0.316469
  H           -3.477516       -3.751590        1.335486
  O            1.822056       -3.148156       -0.046850
  H            2.518855       -3.697054        0.393369
  H            2.026503       -3.216193       -1.013382
  O            0.980204       -1.814094        4.279990
  H            0.433213       -2.176902        5.021463
  H            0.913022       -0.831194        4.380026
  O            4.378307       -2.487794        0.685280
  H            5.357016       -2.513700        0.833834
  H            3.993489       -2.912998        1.492578
  O            1.877573        1.782860        3.324540
  H            2.508162        2.046173        2.607856
  H            1.017798        2.199333        3.063868
