          37
  Built with Packmol                                             
  N            0.064952       -0.170366        2.240690
  C           -0.425087       -0.283877        0.868279
  C            0.367730        0.641149       -0.071166
  C           -0.134429        0.597594       -1.523145
  C            0.096668       -0.713488       -2.230733
  O            0.727246       -1.739965       -1.628533
  O           -0.270635       -0.838959       -3.387000
  H            1.072330       -0.447205        2.286531
  H           -0.048728        0.810713        2.583748
  H           -1.501047       -0.002735        0.840683
  H           -0.338388       -1.340879        0.545678
  H            1.449826        0.389794       -0.041707
  H            0.245710        1.683089        0.295720
  H           -1.217927        0.840241       -1.535888
  H            0.400055        1.383318       -2.098747
  H           -0.488277       -0.808425        2.855591
  O           -1.171476       -2.439397        4.171642
  H           -0.834176       -3.213147        4.689475
  H           -2.043866       -2.223770        4.587638
  O            3.147225        0.850036       -3.387710
  H            2.453705        1.401473       -3.829929
  H            2.854695       -0.084000       -3.538099
  O            0.804431        0.407967       -4.939999
  H            1.197807       -0.499808       -4.982553
  H            1.253062        0.907152       -5.668118
  O            1.181207       -3.005103       -3.395047
  H            2.024175       -2.493822       -3.487819
  H            1.335460       -3.598904       -2.617731
  O            1.512571       -1.417693       -6.991498
  H            0.782171       -1.467341       -7.658329
  H            1.957343       -0.552111       -7.174684
  O            3.536997        1.014910       -0.428484
  H            3.468598        1.311065        0.513973
  H            3.756790        0.051103       -0.370351
  O           -0.927408       -1.734573        6.491043
  H           -1.419725       -2.004992        7.306585
  H           -0.087074       -2.257434        6.523706
