 xtb: 6.7.1 (edcfbbe)
          06092518033D

 37 29  0     0  0            999 V2000
   -0.0845   -1.1347    2.1918 N   0  0  0  0  0  0  0  0  0  0  0  0
   -0.3963   -0.8668    0.7789 C   0  0  0  0  0  0  0  0  0  0  0  0
    0.3764    0.3628    0.2968 C   0  0  0  0  0  0  0  0  0  0  0  0
    0.6713    0.3085   -1.1971 C   0  0  0  0  0  0  0  0  0  0  0  0
    1.7763   -0.7003   -1.5905 C   0  0  0  0  0  0  0  0  0  0  0  0
    2.5309   -1.1495   -0.6938 O   0  0  0  0  0  0  0  0  0  0  0  0
    1.8630   -0.9973   -2.8002 O   0  0  0  0  0  0  0  0  0  0  0  0
    0.9177   -1.3985    2.2536 H   0  0  0  0  0  0  0  0  0  0  0  0
   -0.2267   -0.2839    2.7736 H   0  0  0  0  0  0  0  0  0  0  0  0
   -1.4686   -0.7129    0.6561 H   0  0  0  0  0  0  0  0  0  0  0  0
   -0.0985   -1.7274    0.1777 H   0  0  0  0  0  0  0  0  0  0  0  0
    1.3393    0.4134    0.8063 H   0  0  0  0  0  0  0  0  0  0  0  0
   -0.1827    1.2721    0.5132 H   0  0  0  0  0  0  0  0  0  0  0  0
   -0.2159    0.0596   -1.7820 H   0  0  0  0  0  0  0  0  0  0  0  0
    1.0313    1.2798   -1.5478 H   0  0  0  0  0  0  0  0  0  0  0  0
   -0.6435   -1.9153    2.5977 H   0  0  0  0  0  0  0  0  0  0  0  0
    2.6363   -1.7404    1.9414 O   0  0  0  0  0  0  0  0  0  0  0  0
    2.9190   -2.6593    1.9568 H   0  0  0  0  0  0  0  0  0  0  0  0
    2.6678   -1.4672    1.0013 H   0  0  0  0  0  0  0  0  0  0  0  0
    0.0261    1.0181    3.9446 O   0  0  0  0  0  0  0  0  0  0  0  0
    0.9549    0.7634    4.0987 H   0  0  0  0  0  0  0  0  0  0  0  0
    0.0161    1.9580    3.7552 H   0  0  0  0  0  0  0  0  0  0  0  0
    2.4646   -0.2654    4.2996 O   0  0  0  0  0  0  0  0  0  0  0  0
    3.3166    0.0022    4.6513 H   0  0  0  0  0  0  0  0  0  0  0  0
    2.6425   -0.7384    3.4678 H   0  0  0  0  0  0  0  0  0  0  0  0
    1.7264    3.5733   -2.2197 O   0  0  0  0  0  0  0  0  0  0  0  0
    1.1428    4.3144   -2.4172 H   0  0  0  0  0  0  0  0  0  0  0  0
    2.4270    3.5853   -2.8783 H   0  0  0  0  0  0  0  0  0  0  0  0
   -3.7247   -0.3947    0.6816 O   0  0  0  0  0  0  0  0  0  0  0  0
   -4.3532   -0.8459    0.1119 H   0  0  0  0  0  0  0  0  0  0  0  0
   -4.2331    0.0983    1.3336 H   0  0  0  0  0  0  0  0  0  0  0  0
   -1.2188   -3.0708    3.7637 O   0  0  0  0  0  0  0  0  0  0  0  0
   -2.1348   -3.1366    4.0437 H   0  0  0  0  0  0  0  0  0  0  0  0
   -0.7284   -2.6495    4.5026 H   0  0  0  0  0  0  0  0  0  0  0  0
    0.1203   -1.4494    5.5004 O   0  0  0  0  0  0  0  0  0  0  0  0
    1.0289   -1.2690    5.2134 H   0  0  0  0  0  0  0  0  0  0  0  0
   -0.3426   -0.6115    5.3682 H   0  0  0  0  0  0  0  0  0  0  0  0
  1  2  1  0  0  0  0
  2  3  1  0  0  0  0
  3  4  1  0  0  0  0
  4  5  1  0  0  0  0
  5  6  4  0  0  0  0
  5  7  4  0  0  0  0
  1  8  1  0  0  0  0
  1  9  1  0  0  0  0
  2 10  1  0  0  0  0
  2 11  1  0  0  0  0
  3 12  1  0  0  0  0
  3 13  1  0  0  0  0
  4 14  1  0  0  0  0
  4 15  1  0  0  0  0
  1 16  1  0  0  0  0
 17 18  1  0  0  0  0
 17 19  1  0  0  0  0
 20 21  1  0  0  0  0
 20 22  1  0  0  0  0
 23 24  1  0  0  0  0
 23 25  1  0  0  0  0
 26 27  1  0  0  0  0
 26 28  1  0  0  0  0
 29 30  1  0  0  0  0
 29 31  1  0  0  0  0
 32 33  1  0  0  0  0
 32 34  1  0  0  0  0
 35 36  1  0  0  0  0
 35 37  1  0  0  0  0
M  END
