          34
  Built with Packmol                                             
  H            1.511317       -0.306828       -0.555014
  C            0.423564       -0.532721       -0.609717
  H            0.153518        0.482840       -2.377127
  H            0.306225       -1.519929       -1.108019
  N           -0.266872        0.473091       -1.420552
  H            0.312435       -1.513062        1.312585
  C           -0.165166       -0.646649        0.806799
  O            0.750464        1.631323        1.241066
  C            0.056943        0.562514        1.678499
  H           -0.170369        1.427689       -1.011410
  O           -0.378051        0.562370        2.818531
  H           -1.279945        0.228297       -1.503809
  H           -1.254063       -0.848936        0.728169
  O           -2.984706        1.824330        0.445498
  H           -2.739640        2.771389        0.291768
  H           -3.290199        1.796802        1.387055
  O           -0.083978        3.486987        2.343349
  H            0.841215        3.695088        2.058175
  H           -0.654607        4.059639        1.771454
  O            0.655859       -1.439284       -5.677803
  H            1.579733       -1.084056       -5.707506
  H            0.645889       -2.039093       -4.889930
  O            1.962512       -3.385448        0.858230
  H            1.035747       -3.651712        1.083668
  H            2.308092       -2.965098        1.685571
  O            1.233116        2.335752        3.762551
  H            1.941606        1.730494        4.097684
  H            1.460118        3.219918        4.146392
  O            0.666434        1.083565        5.849961
  H            0.008196        1.755595        5.540592
  H            0.395328        0.880844        6.780563
  O           -0.986565       -2.476389        3.512314
  H           -1.847677       -2.074432        3.790752
  H           -0.580924       -2.802240        4.354863
