 xtb: 6.7.1 (edcfbbe)
          06092517573D

 34 26  0     0  0            999 V2000
    0.1365   -1.6042   -0.0193 H   0  0  0  0  0  0  0  0  0  0  0  0
   -0.7801   -1.0276   -0.1591 C   0  0  0  0  0  0  0  0  0  0  0  0
    0.0562   -0.0433   -1.8122 H   0  0  0  0  0  0  0  0  0  0  0  0
   -1.5123   -1.6488   -0.6741 H   0  0  0  0  0  0  0  0  0  0  0  0
   -0.4974    0.1753   -0.9617 N   0  0  0  0  0  0  0  0  0  0  0  0
   -1.5773   -1.5048    1.7931 H   0  0  0  0  0  0  0  0  0  0  0  0
   -1.3377   -0.6214    1.2040 C   0  0  0  0  0  0  0  0  0  0  0  0
    0.1039    1.2735    1.4545 O   0  0  0  0  0  0  0  0  0  0  0  0
   -0.3492    0.2428    2.0024 C   0  0  0  0  0  0  0  0  0  0  0  0
    0.0194    0.8245   -0.3422 H   0  0  0  0  0  0  0  0  0  0  0  0
   -0.0573   -0.1152    3.1687 O   0  0  0  0  0  0  0  0  0  0  0  0
   -1.3897    0.6569   -1.2263 H   0  0  0  0  0  0  0  0  0  0  0  0
   -2.2450   -0.0280    1.0690 H   0  0  0  0  0  0  0  0  0  0  0  0
   -2.7634    1.6564   -1.3812 O   0  0  0  0  0  0  0  0  0  0  0  0
   -2.9325    2.1238   -2.2049 H   0  0  0  0  0  0  0  0  0  0  0  0
   -2.4745    2.3254   -0.7324 H   0  0  0  0  0  0  0  0  0  0  0  0
   -1.4571    3.2886    0.4085 O   0  0  0  0  0  0  0  0  0  0  0  0
   -0.8973    2.6486    0.8844 H   0  0  0  0  0  0  0  0  0  0  0  0
   -0.8955    4.0479    0.2249 H   0  0  0  0  0  0  0  0  0  0  0  0
    0.9570   -0.4922   -3.2426 O   0  0  0  0  0  0  0  0  0  0  0  0
    1.8621   -0.8022   -3.1503 H   0  0  0  0  0  0  0  0  0  0  0  0
    0.5388   -1.0118   -3.9360 H   0  0  0  0  0  0  0  0  0  0  0  0
    1.6777   -2.9529    0.8487 O   0  0  0  0  0  0  0  0  0  0  0  0
    1.2354   -3.0191    1.7123 H   0  0  0  0  0  0  0  0  0  0  0  0
    2.6215   -3.0010    1.0264 H   0  0  0  0  0  0  0  0  0  0  0  0
    3.5558    2.8180    5.1722 O   0  0  0  0  0  0  0  0  0  0  0  0
    2.7166    2.3426    5.0487 H   0  0  0  0  0  0  0  0  0  0  0  0
    3.3195    3.7490    5.2294 H   0  0  0  0  0  0  0  0  0  0  0  0
    0.9992    1.6312    4.9939 O   0  0  0  0  0  0  0  0  0  0  0  0
    0.6823    1.0413    4.2785 H   0  0  0  0  0  0  0  0  0  0  0  0
    0.5721    1.3173    5.7976 H   0  0  0  0  0  0  0  0  0  0  0  0
    0.4914   -2.7852    3.3911 O   0  0  0  0  0  0  0  0  0  0  0  0
    0.2679   -1.8329    3.3815 H   0  0  0  0  0  0  0  0  0  0  0  0
    0.9185   -2.9499    4.2378 H   0  0  0  0  0  0  0  0  0  0  0  0
  1  2  1  0  0  0  0
  2  4  1  0  0  0  0
  2  5  1  0  0  0  0
  3  5  1  0  0  0  0
  2  7  1  0  0  0  0
  6  7  1  0  0  0  0
  7  9  1  0  0  0  0
  8  9  4  0  0  0  0
  5 10  1  0  0  0  0
  9 11  4  0  0  0  0
  5 12  1  0  0  0  0
  7 13  1  0  0  0  0
 14 15  1  0  0  0  0
 14 16  1  0  0  0  0
 17 18  1  0  0  0  0
 17 19  1  0  0  0  0
 20 21  1  0  0  0  0
 20 22  1  0  0  0  0
 23 24  1  0  0  0  0
 23 25  1  0  0  0  0
 26 27  1  0  0  0  0
 26 28  1  0  0  0  0
 29 30  1  0  0  0  0
 29 31  1  0  0  0  0
 32 33  1  0  0  0  0
 32 34  1  0  0  0  0
M  END
