 xtb: 6.7.1 (edcfbbe)
          06092518013D

 37 29  0     0  0            999 V2000
    0.5655    0.8198    2.1223 N   0  0  0  0  0  0  0  0  0  0  0  0
    0.5881   -0.2077    1.0617 C   0  0  0  0  0  0  0  0  0  0  0  0
    0.5322    0.4354   -0.3180 C   0  0  0  0  0  0  0  0  0  0  0  0
    0.4249   -0.6458   -1.3832 C   0  0  0  0  0  0  0  0  0  0  0  0
    0.3895   -0.1181   -2.8220 C   0  0  0  0  0  0  0  0  0  0  0  0
    0.6337    1.0736   -3.0607 O   0  0  0  0  0  0  0  0  0  0  0  0
    0.0959   -0.9754   -3.7150 O   0  0  0  0  0  0  0  0  0  0  0  0
    1.4019    1.4311    2.0529 H   0  0  0  0  0  0  0  0  0  0  0  0
   -0.2798    1.4134    2.0125 H   0  0  0  0  0  0  0  0  0  0  0  0
   -0.2671   -0.8757    1.1782 H   0  0  0  0  0  0  0  0  0  0  0  0
    1.4959   -0.8042    1.1467 H   0  0  0  0  0  0  0  0  0  0  0  0
    1.4210    1.0367   -0.5140 H   0  0  0  0  0  0  0  0  0  0  0  0
   -0.3359    1.0907   -0.3983 H   0  0  0  0  0  0  0  0  0  0  0  0
   -0.4798   -1.2375   -1.2351 H   0  0  0  0  0  0  0  0  0  0  0  0
    1.2749   -1.3292   -1.3197 H   0  0  0  0  0  0  0  0  0  0  0  0
    0.5463    0.3810    3.0442 H   0  0  0  0  0  0  0  0  0  0  0  0
   -1.7375    2.3796    1.7975 O   0  0  0  0  0  0  0  0  0  0  0  0
   -1.7948    3.3360    1.7235 H   0  0  0  0  0  0  0  0  0  0  0  0
   -2.6282    2.0365    1.9076 H   0  0  0  0  0  0  0  0  0  0  0  0
    0.1785   -3.5407   -2.9485 O   0  0  0  0  0  0  0  0  0  0  0  0
    0.1748   -2.5947   -3.2369 H   0  0  0  0  0  0  0  0  0  0  0  0
    0.3345   -4.0601   -3.7428 H   0  0  0  0  0  0  0  0  0  0  0  0
   -2.6117   -1.3888   -3.9191 O   0  0  0  0  0  0  0  0  0  0  0  0
   -1.6486   -1.2307   -3.9497 H   0  0  0  0  0  0  0  0  0  0  0  0
   -3.0287   -0.5818   -4.2345 H   0  0  0  0  0  0  0  0  0  0  0  0
   -1.2898   -2.8427    0.8429 O   0  0  0  0  0  0  0  0  0  0  0  0
   -1.8510   -2.9780    0.0629 H   0  0  0  0  0  0  0  0  0  0  0  0
   -0.4306   -3.2248    0.5907 H   0  0  0  0  0  0  0  0  0  0  0  0
   -2.3526   -3.2281   -1.7628 O   0  0  0  0  0  0  0  0  0  0  0  0
   -1.4945   -3.4970   -2.1381 H   0  0  0  0  0  0  0  0  0  0  0  0
   -2.7043   -2.5998   -2.4110 H   0  0  0  0  0  0  0  0  0  0  0  0
    1.0978   -3.8857   -0.3016 O   0  0  0  0  0  0  0  0  0  0  0  0
    0.8186   -3.7617   -1.2243 H   0  0  0  0  0  0  0  0  0  0  0  0
    1.2939   -4.8225   -0.2035 H   0  0  0  0  0  0  0  0  0  0  0  0
    2.8539    2.4334    2.0083 O   0  0  0  0  0  0  0  0  0  0  0  0
    2.8653    3.3600    1.7553 H   0  0  0  0  0  0  0  0  0  0  0  0
    3.7648    2.1383    2.0881 H   0  0  0  0  0  0  0  0  0  0  0  0
  1  2  1  0  0  0  0
  2  3  1  0  0  0  0
  3  4  1  0  0  0  0
  4  5  1  0  0  0  0
  5  6  2  0  0  0  0
  5  7  4  0  0  0  0
  1  8  1  0  0  0  0
  1  9  1  0  0  0  0
  2 10  1  0  0  0  0
  2 11  1  0  0  0  0
  3 12  1  0  0  0  0
  3 13  1  0  0  0  0
  4 14  1  0  0  0  0
  4 15  1  0  0  0  0
  1 16  1  0  0  0  0
 17 18  1  0  0  0  0
 17 19  1  0  0  0  0
 20 21  1  0  0  0  0
 20 22  1  0  0  0  0
 23 24  1  0  0  0  0
 23 25  1  0  0  0  0
 26 27  1  0  0  0  0
 26 28  1  0  0  0  0
 29 30  1  0  0  0  0
 29 31  1  0  0  0  0
 32 33  1  0  0  0  0
 32 34  1  0  0  0  0
 35 36  1  0  0  0  0
 35 37  1  0  0  0  0
M  END
