          34
  Built with Packmol                                             
  H            1.420531       -0.693439       -0.457594
  C            0.315625       -0.640915       -0.572756
  H            0.379447        0.341256       -2.375102
  H           -0.020204       -1.577267       -1.069783
  N           -0.042833        0.489322       -1.430827
  H           -0.104344       -1.525775        1.342275
  C           -0.356072       -0.581772        0.809877
  O           -0.155039        1.845644        1.277794
  C            0.099005        0.578296        1.654298
  H            0.334594        1.383914       -1.050468
  O            0.669992        0.373338        2.712012
  H           -1.081518        0.548347       -1.533033
  H           -1.459185       -0.540948        0.693308
  O           -1.610377        0.951891        4.656936
  H           -1.372623        1.907541        4.552937
  H           -2.022438        0.703144        3.791520
  O           -3.270168        1.071501       -1.495419
  H           -2.989640        1.272412       -2.423616
  H           -2.820789        1.761643       -0.945532
  O            0.445317        1.387589       -5.699361
  H            0.894845        0.717275       -6.273134
  H            0.401191        2.203442       -6.258870
  O           -0.347709       -1.255100        6.367265
  H           -1.114008       -1.353173        5.747767
  H           -0.613058       -0.520285        6.975747
  O           -0.195650        3.424078        2.857979
  H            0.016564        3.911013        2.022233
  H           -1.175591        3.285953        2.822642
  O            1.764985        0.540214       -4.154991
  H            1.716838        1.496951       -3.904101
  H            2.540032        0.189505       -3.648119
  O           -1.072309       -2.187284        3.221685
  H           -1.741410       -1.601395        3.657172
  H           -0.498258       -2.502983        3.964257
