 xtb: 6.7.1 (edcfbbe)
          06092517593D

 34 26  0     0  0            999 V2000
    0.3482   -0.4074   -0.7147 H   0  0  0  0  0  0  0  0  0  0  0  0
   -0.5596   -0.2611   -0.1291 C   0  0  0  0  0  0  0  0  0  0  0  0
   -1.3315    0.7682   -1.7781 H   0  0  0  0  0  0  0  0  0  0  0  0
   -1.1647   -1.1675   -0.1637 H   0  0  0  0  0  0  0  0  0  0  0  0
   -1.3085    0.8610   -0.7302 N   0  0  0  0  0  0  0  0  0  0  0  0
    0.3893   -0.7399    1.7579 H   0  0  0  0  0  0  0  0  0  0  0  0
   -0.1811    0.0714    1.3094 C   0  0  0  0  0  0  0  0  0  0  0  0
    0.3858    2.3175    0.6635 O   0  0  0  0  0  0  0  0  0  0  0  0
    0.6656    1.3657    1.4392 C   0  0  0  0  0  0  0  0  0  0  0  0
   -0.7703    1.7131   -0.4270 H   0  0  0  0  0  0  0  0  0  0  0  0
    1.5440    1.3912    2.3199 O   0  0  0  0  0  0  0  0  0  0  0  0
   -2.2570    0.9123   -0.3604 H   0  0  0  0  0  0  0  0  0  0  0  0
   -1.0744    0.2340    1.9164 H   0  0  0  0  0  0  0  0  0  0  0  0
   -1.3610   -3.7956    2.3525 O   0  0  0  0  0  0  0  0  0  0  0  0
   -1.5979   -3.3777    3.1841 H   0  0  0  0  0  0  0  0  0  0  0  0
   -0.4033   -3.6447    2.2285 H   0  0  0  0  0  0  0  0  0  0  0  0
    0.8129   -1.4790   -3.0301 O   0  0  0  0  0  0  0  0  0  0  0  0
    1.5679   -1.7441   -3.5607 H   0  0  0  0  0  0  0  0  0  0  0  0
    0.6479   -2.2068   -2.3953 H   0  0  0  0  0  0  0  0  0  0  0  0
    1.7232   -5.5145    0.0866 O   0  0  0  0  0  0  0  0  0  0  0  0
    1.2199   -6.3334    0.0834 H   0  0  0  0  0  0  0  0  0  0  0  0
    1.3108   -4.9307   -0.5792 H   0  0  0  0  0  0  0  0  0  0  0  0
    0.4236   -3.3405   -1.0542 O   0  0  0  0  0  0  0  0  0  0  0  0
   -0.5399   -3.3464   -0.8670 H   0  0  0  0  0  0  0  0  0  0  0  0
    0.8109   -2.9241   -0.2731 H   0  0  0  0  0  0  0  0  0  0  0  0
   -2.1543   -3.1646   -0.1921 O   0  0  0  0  0  0  0  0  0  0  0  0
   -1.9825   -3.4225    0.7356 H   0  0  0  0  0  0  0  0  0  0  0  0
   -2.9148   -3.6721   -0.4868 H   0  0  0  0  0  0  0  0  0  0  0  0
    1.3233   -3.4056    1.8183 O   0  0  0  0  0  0  0  0  0  0  0  0
    2.0442   -3.2499    2.4329 H   0  0  0  0  0  0  0  0  0  0  0  0
    1.5543   -4.2217    1.3268 H   0  0  0  0  0  0  0  0  0  0  0  0
   -1.1303    0.4380   -3.4036 O   0  0  0  0  0  0  0  0  0  0  0  0
   -0.6922    1.1278   -3.9101 H   0  0  0  0  0  0  0  0  0  0  0  0
   -0.5071   -0.3123   -3.3617 H   0  0  0  0  0  0  0  0  0  0  0  0
  1  2  1  0  0  0  0
  2  4  1  0  0  0  0
  2  5  1  0  0  0  0
  3  5  1  0  0  0  0
  2  7  1  0  0  0  0
  6  7  1  0  0  0  0
  7  9  1  0  0  0  0
  8  9  4  0  0  0  0
  5 10  1  0  0  0  0
  9 11  2  0  0  0  0
  5 12  1  0  0  0  0
  7 13  1  0  0  0  0
 14 15  1  0  0  0  0
 14 16  1  0  0  0  0
 17 18  1  0  0  0  0
 17 19  1  0  0  0  0
 20 21  1  0  0  0  0
 20 22  1  0  0  0  0
 23 24  1  0  0  0  0
 23 25  1  0  0  0  0
 26 27  1  0  0  0  0
 26 28  1  0  0  0  0
 29 30  1  0  0  0  0
 29 31  1  0  0  0  0
 32 33  1  0  0  0  0
 32 34  1  0  0  0  0
M  END
