 xtb: 6.7.1 (edcfbbe)
          06092517523D

 34 26  0     0  0            999 V2000
    0.4683   -0.3286    1.2527 C   0  0  0  0  0  0  0  0  0  0  0  0
    0.3999    0.6166    2.4799 C   0  0  0  0  0  0  0  0  0  0  0  0
   -0.0737    0.1665    3.5374 O   0  0  0  0  0  0  0  0  0  0  0  0
    0.8440    1.7816    2.3195 O   0  0  0  0  0  0  0  0  0  0  0  0
   -0.2113    0.2957    0.0412 C   0  0  0  0  0  0  0  0  0  0  0  0
    0.2689   -0.3013   -1.2192 N   0  0  0  0  0  0  0  0  0  0  0  0
    1.5294   -0.4796    1.0466 H   0  0  0  0  0  0  0  0  0  0  0  0
    0.0196   -1.2775    1.5449 H   0  0  0  0  0  0  0  0  0  0  0  0
   -1.2927    0.1831    0.1278 H   0  0  0  0  0  0  0  0  0  0  0  0
    0.0220    1.3609    0.0297 H   0  0  0  0  0  0  0  0  0  0  0  0
    0.0235   -1.2888   -1.2760 H   0  0  0  0  0  0  0  0  0  0  0  0
    1.3334   -0.2061   -1.2588 H   0  0  0  0  0  0  0  0  0  0  0  0
   -0.1261    0.2243   -2.0321 H   0  0  0  0  0  0  0  0  0  0  0  0
    2.3965    2.4533    0.2431 O   0  0  0  0  0  0  0  0  0  0  0  0
    1.8178    2.2229    1.0094 H   0  0  0  0  0  0  0  0  0  0  0  0
    3.0772    3.0320    0.5948 H   0  0  0  0  0  0  0  0  0  0  0  0
    3.0571    1.3474   -3.6186 O   0  0  0  0  0  0  0  0  0  0  0  0
    2.5885    2.1226   -3.2389 H   0  0  0  0  0  0  0  0  0  0  0  0
    2.4194    0.9642   -4.2460 H   0  0  0  0  0  0  0  0  0  0  0  0
    1.4135    3.1064   -2.3415 O   0  0  0  0  0  0  0  0  0  0  0  0
    0.6114    2.5839   -2.5198 H   0  0  0  0  0  0  0  0  0  0  0  0
    1.6483    2.9433   -1.4133 H   0  0  0  0  0  0  0  0  0  0  0  0
    1.1502    2.5094   -7.2744 O   0  0  0  0  0  0  0  0  0  0  0  0
    0.7910    3.3712   -7.0405 H   0  0  0  0  0  0  0  0  0  0  0  0
    2.0168    2.6606   -7.6631 H   0  0  0  0  0  0  0  0  0  0  0  0
    1.0016    0.5194   -5.3637 O   0  0  0  0  0  0  0  0  0  0  0  0
    0.9600   -0.3390   -5.7952 H   0  0  0  0  0  0  0  0  0  0  0  0
    1.0328    1.1906   -6.0712 H   0  0  0  0  0  0  0  0  0  0  0  0
    2.8999    0.1340   -1.2225 O   0  0  0  0  0  0  0  0  0  0  0  0
    3.0975    0.4742   -2.1277 H   0  0  0  0  0  0  0  0  0  0  0  0
    2.8846    0.9287   -0.6594 H   0  0  0  0  0  0  0  0  0  0  0  0
   -0.5794    1.2934   -3.2646 O   0  0  0  0  0  0  0  0  0  0  0  0
   -1.4706    1.4474   -3.5885 H   0  0  0  0  0  0  0  0  0  0  0  0
   -0.0357    1.0227   -4.0329 H   0  0  0  0  0  0  0  0  0  0  0  0
  1  2  1  0  0  0  0
  2  3  2  0  0  0  0
  2  4  4  0  0  0  0
  1  5  1  0  0  0  0
  5  6  1  0  0  0  0
  1  7  1  0  0  0  0
  1  8  1  0  0  0  0
  5  9  1  0  0  0  0
  5 10  1  0  0  0  0
  6 11  1  0  0  0  0
  6 12  1  0  0  0  0
  6 13  1  0  0  0  0
 14 15  1  0  0  0  0
 14 16  1  0  0  0  0
 17 18  1  0  0  0  0
 17 19  1  0  0  0  0
 20 21  1  0  0  0  0
 20 22  1  0  0  0  0
 23 24  1  0  0  0  0
 23 25  1  0  0  0  0
 26 27  1  0  0  0  0
 26 28  1  0  0  0  0
 29 30  1  0  0  0  0
 29 31  1  0  0  0  0
 32 33  1  0  0  0  0
 32 34  1  0  0  0  0
M  END
