          37
  Built with Packmol                                             
  N            0.002605        0.268339        2.349498
  C            0.005610       -0.534268        1.127824
  C           -0.013605        0.360442       -0.117570
  C           -0.006580       -0.484114       -1.399583
  C            0.005309        0.346063       -2.655593
  O            0.015980        1.566588       -2.611145
  O            0.010136       -0.270580       -3.851920
  H            0.843830        0.889238        2.373417
  H           -0.867625        0.846216        2.397033
  H           -0.885896       -1.198618        1.124039
  H            0.917756       -1.170846        1.111005
  H            0.882890        1.016132       -0.103939
  H           -0.924881        0.997831       -0.099780
  H           -0.910028       -1.129127       -1.413513
  H            0.894287       -1.134110       -1.406828
  H            0.030211       -0.369186        3.177055
  O            1.114940        2.421455       -4.669344
  H            1.361451        2.463340       -5.627513
  H            0.703637        3.302187       -4.480253
  O           -2.361722        2.659229        2.933895
  H           -2.531410        2.720320        1.960198
  H           -1.403268        2.887393        3.033497
  O           -0.591981       -0.924657        8.245185
  H            0.397350       -0.964682        8.260467
  H           -0.804660       -0.336574        7.477370
  O           -3.459059        0.814793        1.355677
  H           -2.618546        0.338227        1.138805
  H           -4.031730        0.127259        1.779891
  O           -0.889528       -2.066629        5.312405
  H           -0.146682       -2.659281        5.590890
  H           -1.504778       -2.058661        6.088303
  O           -2.818581       -2.217669        1.454741
  H           -2.753313       -1.595549        2.222412
  H           -3.357065       -1.727747        0.783455
  O           -1.678914        2.386822        5.160916
  H           -0.709475        2.226908        5.037517
  H           -2.106305        1.531814        4.902243
