          37
  Built with Packmol                                             
  N            0.064952       -0.170366        2.240690
  C           -0.425087       -0.283877        0.868279
  C            0.367730        0.641149       -0.071166
  C           -0.134429        0.597594       -1.523145
  C            0.096668       -0.713488       -2.230733
  O            0.727246       -1.739965       -1.628533
  O           -0.270635       -0.838959       -3.387000
  H            1.072330       -0.447205        2.286531
  H           -0.048728        0.810713        2.583748
  H           -1.501047       -0.002735        0.840683
  H           -0.338388       -1.340879        0.545678
  H            1.449826        0.389794       -0.041707
  H            0.245710        1.683089        0.295720
  H           -1.217927        0.840241       -1.535888
  H            0.400055        1.383318       -2.098747
  H           -0.488277       -0.808425        2.855591
  O           -3.217874       -2.719392        2.331852
  H           -3.388061       -3.572469        2.805041
  H           -3.765402       -2.052588        2.817854
  O           -1.251593       -3.302287        3.265148
  H           -1.411005       -2.534209        3.869510
  H           -1.027593       -2.889634        2.393280
  O            1.904977       -1.117954        4.504025
  H            2.583717       -0.960439        3.800383
  H            2.147580       -1.996833        4.890456
  O            2.961951       -3.078595        2.280432
  H            3.148044       -2.138585        2.030707
  H            3.151186       -3.119420        3.251584
  O            0.752620       -3.614844        4.112846
  H            0.394683       -4.536229        4.053323
  H            0.970574       -3.372463        3.177773
  O           -1.468091        0.431075        5.390068
  H           -1.701992        1.340251        5.705188
  H           -2.323236        0.054510        5.062136
  O           -0.095280       -0.888631        6.748612
  H            0.498691       -1.661661        6.922491
  H            0.486431       -0.224841        6.299605
