 xtb: 6.7.1 (edcfbbe)
          06092518053D

 37 29  0     0  0            999 V2000
    0.0333   -0.9146    1.7107 N   0  0  0  0  0  0  0  0  0  0  0  0
    0.8784    0.0958    1.0491 C   0  0  0  0  0  0  0  0  0  0  0  0
    0.1209    0.8380   -0.0524 C   0  0  0  0  0  0  0  0  0  0  0  0
   -0.7634   -0.0654   -0.9257 C   0  0  0  0  0  0  0  0  0  0  0  0
   -0.0410   -1.3371   -1.3862 C   0  0  0  0  0  0  0  0  0  0  0  0
    0.6290   -1.3122   -2.4386 O   0  0  0  0  0  0  0  0  0  0  0  0
   -0.1699   -2.3598   -0.6582 O   0  0  0  0  0  0  0  0  0  0  0  0
    0.5082   -1.2894    2.5529 H   0  0  0  0  0  0  0  0  0  0  0  0
   -0.8902   -0.5360    1.9881 H   0  0  0  0  0  0  0  0  0  0  0  0
    1.2286    0.8094    1.7961 H   0  0  0  0  0  0  0  0  0  0  0  0
    1.7438   -0.4170    0.6229 H   0  0  0  0  0  0  0  0  0  0  0  0
    0.8509    1.3387   -0.6888 H   0  0  0  0  0  0  0  0  0  0  0  0
   -0.5212    1.6023    0.3870 H   0  0  0  0  0  0  0  0  0  0  0  0
   -1.6546   -0.3678   -0.3755 H   0  0  0  0  0  0  0  0  0  0  0  0
   -1.0768    0.4874   -1.8124 H   0  0  0  0  0  0  0  0  0  0  0  0
   -0.1293   -1.6769    1.0254 H   0  0  0  0  0  0  0  0  0  0  0  0
    1.2549   -1.8977    4.0482 O   0  0  0  0  0  0  0  0  0  0  0  0
    0.5960   -2.2079    4.6785 H   0  0  0  0  0  0  0  0  0  0  0  0
    1.8805   -2.6149    3.9054 H   0  0  0  0  0  0  0  0  0  0  0  0
    3.6508   -1.5643    0.0238 O   0  0  0  0  0  0  0  0  0  0  0  0
    3.3815   -2.0705   -0.7636 H   0  0  0  0  0  0  0  0  0  0  0  0
    4.4918   -1.1566   -0.2019 H   0  0  0  0  0  0  0  0  0  0  0  0
   -2.6813   -0.6583    2.2376 O   0  0  0  0  0  0  0  0  0  0  0  0
   -3.4901   -0.1482    2.1594 H   0  0  0  0  0  0  0  0  0  0  0  0
   -2.7949   -1.4595    1.6933 H   0  0  0  0  0  0  0  0  0  0  0  0
    2.7920   -2.9114   -2.2632 O   0  0  0  0  0  0  0  0  0  0  0  0
    2.4577   -3.8128   -2.2154 H   0  0  0  0  0  0  0  0  0  0  0  0
    2.0037   -2.3423   -2.4215 H   0  0  0  0  0  0  0  0  0  0  0  0
   -2.5769   -2.8590    0.5549 O   0  0  0  0  0  0  0  0  0  0  0  0
   -2.6149   -3.7878    0.8010 H   0  0  0  0  0  0  0  0  0  0  0  0
   -1.7510   -2.7478    0.0418 H   0  0  0  0  0  0  0  0  0  0  0  0
    2.0923    0.8837    3.9737 O   0  0  0  0  0  0  0  0  0  0  0  0
    1.8479   -0.0424    4.1255 H   0  0  0  0  0  0  0  0  0  0  0  0
    3.0473    0.9311    4.0696 H   0  0  0  0  0  0  0  0  0  0  0  0
   -2.5497    1.8760   -3.3034 O   0  0  0  0  0  0  0  0  0  0  0  0
   -3.1212    2.6095   -3.0514 H   0  0  0  0  0  0  0  0  0  0  0  0
   -2.5326    1.8481   -4.2646 H   0  0  0  0  0  0  0  0  0  0  0  0
  1  2  1  0  0  0  0
  2  3  1  0  0  0  0
  3  4  1  0  0  0  0
  4  5  1  0  0  0  0
  5  6  4  0  0  0  0
  5  7  4  0  0  0  0
  1  8  1  0  0  0  0
  1  9  1  0  0  0  0
  2 10  1  0  0  0  0
  2 11  1  0  0  0  0
  3 12  1  0  0  0  0
  3 13  1  0  0  0  0
  4 14  1  0  0  0  0
  4 15  1  0  0  0  0
  1 16  1  0  0  0  0
 17 18  1  0  0  0  0
 17 19  1  0  0  0  0
 20 21  1  0  0  0  0
 20 22  1  0  0  0  0
 23 24  1  0  0  0  0
 23 25  1  0  0  0  0
 26 27  1  0  0  0  0
 26 28  1  0  0  0  0
 29 30  1  0  0  0  0
 29 31  1  0  0  0  0
 32 33  1  0  0  0  0
 32 34  1  0  0  0  0
 35 36  1  0  0  0  0
 35 37  1  0  0  0  0
M  END
