 xtb: 6.7.1 (edcfbbe)
          06092518053D

 37 29  0     0  0            999 V2000
   -0.3267   -0.7038    1.5227 N   0  0  0  0  0  0  0  0  0  0  0  0
    0.8822    0.1121    1.3155 C   0  0  0  0  0  0  0  0  0  0  0  0
    0.6182    1.2615    0.3425 C   0  0  0  0  0  0  0  0  0  0  0  0
   -0.1863    0.8684   -0.9066 C   0  0  0  0  0  0  0  0  0  0  0  0
    0.2832   -0.4497   -1.5592 C   0  0  0  0  0  0  0  0  0  0  0  0
    1.0111   -0.3774   -2.5713 O   0  0  0  0  0  0  0  0  0  0  0  0
   -0.1175   -1.5156   -1.0324 O   0  0  0  0  0  0  0  0  0  0  0  0
   -0.1816   -1.4187    2.2584 H   0  0  0  0  0  0  0  0  0  0  0  0
   -1.1068   -0.1174    1.8523 H   0  0  0  0  0  0  0  0  0  0  0  0
    1.2005    0.5301    2.2708 H   0  0  0  0  0  0  0  0  0  0  0  0
    1.6644   -0.5331    0.9136 H   0  0  0  0  0  0  0  0  0  0  0  0
    1.5809    1.6645    0.0270 H   0  0  0  0  0  0  0  0  0  0  0  0
    0.0744    2.0556    0.8556 H   0  0  0  0  0  0  0  0  0  0  0  0
   -1.2425    0.7457   -0.6602 H   0  0  0  0  0  0  0  0  0  0  0  0
   -0.0964    1.6556   -1.6567 H   0  0  0  0  0  0  0  0  0  0  0  0
   -0.5353   -1.1669    0.6059 H   0  0  0  0  0  0  0  0  0  0  0  0
    0.2640    4.4729    4.9026 O   0  0  0  0  0  0  0  0  0  0  0  0
    0.4235    5.1925    4.2845 H   0  0  0  0  0  0  0  0  0  0  0  0
    0.5925    4.7523    5.7625 H   0  0  0  0  0  0  0  0  0  0  0  0
    1.5125   -2.1224    5.5569 O   0  0  0  0  0  0  0  0  0  0  0  0
    0.7007   -2.1292    5.0101 H   0  0  0  0  0  0  0  0  0  0  0  0
    2.1534   -2.6632    5.0869 H   0  0  0  0  0  0  0  0  0  0  0  0
   -1.7870    0.4272    3.6296 O   0  0  0  0  0  0  0  0  0  0  0  0
   -2.5099    0.9168    4.0269 H   0  0  0  0  0  0  0  0  0  0  0  0
   -0.9651    0.9395    3.8196 H   0  0  0  0  0  0  0  0  0  0  0  0
    0.4938    1.7591    4.1006 O   0  0  0  0  0  0  0  0  0  0  0  0
    1.0038    1.3357    4.8204 H   0  0  0  0  0  0  0  0  0  0  0  0
    0.3919    2.6864    4.3634 H   0  0  0  0  0  0  0  0  0  0  0  0
    2.8716   -2.1648   -3.5249 O   0  0  0  0  0  0  0  0  0  0  0  0
    2.1870   -1.5783   -3.1427 H   0  0  0  0  0  0  0  0  0  0  0  0
    2.9206   -1.9238   -4.4555 H   0  0  0  0  0  0  0  0  0  0  0  0
    1.9999    0.5309    6.0383 O   0  0  0  0  0  0  0  0  0  0  0  0
    1.8085   -0.4271    5.9680 H   0  0  0  0  0  0  0  0  0  0  0  0
    2.9569    0.6169    6.0122 H   0  0  0  0  0  0  0  0  0  0  0  0
   -0.6935   -2.0773    3.9170 O   0  0  0  0  0  0  0  0  0  0  0  0
   -1.1674   -1.2265    4.0184 H   0  0  0  0  0  0  0  0  0  0  0  0
   -1.3551   -2.7720    3.9676 H   0  0  0  0  0  0  0  0  0  0  0  0
  1  2  1  0  0  0  0
  2  3  1  0  0  0  0
  3  4  1  0  0  0  0
  4  5  1  0  0  0  0
  5  6  4  0  0  0  0
  5  7  4  0  0  0  0
  1  8  1  0  0  0  0
  1  9  1  0  0  0  0
  2 10  1  0  0  0  0
  2 11  1  0  0  0  0
  3 12  1  0  0  0  0
  3 13  1  0  0  0  0
  4 14  1  0  0  0  0
  4 15  1  0  0  0  0
  1 16  1  0  0  0  0
 17 18  1  0  0  0  0
 17 19  1  0  0  0  0
 20 21  1  0  0  0  0
 20 22  1  0  0  0  0
 23 24  1  0  0  0  0
 23 25  1  0  0  0  0
 26 27  1  0  0  0  0
 26 28  1  0  0  0  0
 29 30  1  0  0  0  0
 29 31  1  0  0  0  0
 32 33  1  0  0  0  0
 32 34  1  0  0  0  0
 35 36  1  0  0  0  0
 35 37  1  0  0  0  0
M  END
