 xtb: 6.7.1 (edcfbbe)
          06092517523D

 34 26  0     0  0            999 V2000
    0.3589   -0.3629    0.4572 C   0  0  0  0  0  0  0  0  0  0  0  0
    0.7649    0.7427    1.4728 C   0  0  0  0  0  0  0  0  0  0  0  0
    1.1836    0.3432    2.5822 O   0  0  0  0  0  0  0  0  0  0  0  0
    0.6382    1.9340    1.1207 O   0  0  0  0  0  0  0  0  0  0  0  0
   -0.1009    0.2087   -0.8725 C   0  0  0  0  0  0  0  0  0  0  0  0
   -0.4569   -0.8636   -1.8161 N   0  0  0  0  0  0  0  0  0  0  0  0
    1.2239   -1.0164    0.3405 H   0  0  0  0  0  0  0  0  0  0  0  0
   -0.4309   -0.9384    0.9417 H   0  0  0  0  0  0  0  0  0  0  0  0
   -0.9541    0.8636   -0.6938 H   0  0  0  0  0  0  0  0  0  0  0  0
    0.6988    0.8210   -1.2897 H   0  0  0  0  0  0  0  0  0  0  0  0
   -1.1499   -1.5004   -1.3965 H   0  0  0  0  0  0  0  0  0  0  0  0
    0.3969   -1.4021   -2.0895 H   0  0  0  0  0  0  0  0  0  0  0  0
   -0.8572   -0.4814   -2.7027 H   0  0  0  0  0  0  0  0  0  0  0  0
    0.0984   -4.2022   -3.3624 O   0  0  0  0  0  0  0  0  0  0  0  0
    0.1774   -4.8447   -4.0707 H   0  0  0  0  0  0  0  0  0  0  0  0
   -0.7603   -3.7328   -3.5114 H   0  0  0  0  0  0  0  0  0  0  0  0
    1.7392   -2.0850   -2.9543 O   0  0  0  0  0  0  0  0  0  0  0  0
    2.3435   -2.3759   -2.2661 H   0  0  0  0  0  0  0  0  0  0  0  0
    1.2193   -2.8824   -3.2020 H   0  0  0  0  0  0  0  0  0  0  0  0
    1.2731   -3.8481   -0.7649 O   0  0  0  0  0  0  0  0  0  0  0  0
    0.7878   -4.1786   -1.5395 H   0  0  0  0  0  0  0  0  0  0  0  0
    1.2570   -4.5470   -0.1090 H   0  0  0  0  0  0  0  0  0  0  0  0
   -1.3273   -0.2020   -4.3313 O   0  0  0  0  0  0  0  0  0  0  0  0
   -0.4110   -0.2036   -4.6882 H   0  0  0  0  0  0  0  0  0  0  0  0
   -1.7407    0.6123   -4.6255 H   0  0  0  0  0  0  0  0  0  0  0  0
    1.2674   -0.3337   -5.0442 O   0  0  0  0  0  0  0  0  0  0  0  0
    1.5946   -0.7455   -5.8480 H   0  0  0  0  0  0  0  0  0  0  0  0
    1.5941   -0.8758   -4.3029 H   0  0  0  0  0  0  0  0  0  0  0  0
   -2.1639   -2.8276   -3.7457 O   0  0  0  0  0  0  0  0  0  0  0  0
   -1.9491   -1.9496   -4.1051 H   0  0  0  0  0  0  0  0  0  0  0  0
   -2.5275   -2.6636   -2.8603 H   0  0  0  0  0  0  0  0  0  0  0  0
   -2.8509   -2.2524   -1.0469 O   0  0  0  0  0  0  0  0  0  0  0  0
   -3.0328   -2.9999   -0.4712 H   0  0  0  0  0  0  0  0  0  0  0  0
   -3.5312   -1.5935   -0.8791 H   0  0  0  0  0  0  0  0  0  0  0  0
  1  2  1  0  0  0  0
  2  3  4  0  0  0  0
  2  4  4  0  0  0  0
  1  5  1  0  0  0  0
  5  6  1  0  0  0  0
  1  7  1  0  0  0  0
  1  8  1  0  0  0  0
  5  9  1  0  0  0  0
  5 10  1  0  0  0  0
  6 11  1  0  0  0  0
  6 12  1  0  0  0  0
  6 13  1  0  0  0  0
 14 15  1  0  0  0  0
 14 16  1  0  0  0  0
 17 18  1  0  0  0  0
 17 19  1  0  0  0  0
 20 21  1  0  0  0  0
 20 22  1  0  0  0  0
 23 24  1  0  0  0  0
 23 25  1  0  0  0  0
 26 27  1  0  0  0  0
 26 28  1  0  0  0  0
 29 30  1  0  0  0  0
 29 31  1  0  0  0  0
 32 33  1  0  0  0  0
 32 34  1  0  0  0  0
M  END
