          37
  Built with Packmol                                             
  N            0.002605        0.268339        2.349498
  C            0.005610       -0.534268        1.127824
  C           -0.013605        0.360442       -0.117570
  C           -0.006580       -0.484114       -1.399583
  C            0.005309        0.346063       -2.655593
  O            0.015980        1.566588       -2.611145
  O            0.010136       -0.270580       -3.851920
  H            0.843830        0.889238        2.373417
  H           -0.867625        0.846216        2.397033
  H           -0.885896       -1.198618        1.124039
  H            0.917756       -1.170846        1.111005
  H            0.882890        1.016132       -0.103939
  H           -0.924881        0.997831       -0.099780
  H           -0.910028       -1.129127       -1.413513
  H            0.894287       -1.134110       -1.406828
  H            0.030211       -0.369186        3.177055
  O            2.661876       -1.931678        4.007066
  H            3.180180       -1.088227        3.983343
  H            3.325340       -2.623683        4.255173
  O            1.077997       -3.357998        4.657673
  H            0.152287       -3.707621        4.619779
  H            1.038809       -2.623380        5.320557
  O           -0.402199       -2.445526        6.972906
  H            0.096669       -2.390695        7.826566
  H           -0.374772       -1.524598        6.609928
  O            2.050377       -3.463499        1.776562
  H            2.116231       -3.668314        2.743167
  H            2.501828       -2.587753        1.677196
  O           -2.159461       -3.625898        2.756448
  H           -2.155360       -2.661668        2.981955
  H           -1.817641       -4.072738        3.571375
  O           -2.261150       -1.868108        5.536709
  H           -2.585594       -1.393906        4.730185
  H           -1.673239       -2.582920        5.184546
  O           -0.460015       -3.338557        1.392635
  H           -0.065838       -3.174970        2.286209
  H           -0.581566       -4.320448        1.351065
