 xtb: 6.7.1 (edcfbbe)
          06092518043D

 37 29  0     0  0            999 V2000
   -0.3485   -0.7728    1.6326 N   0  0  0  0  0  0  0  0  0  0  0  0
   -0.5727   -0.3713    0.2279 C   0  0  0  0  0  0  0  0  0  0  0  0
    0.5925    0.4410   -0.3245 C   0  0  0  0  0  0  0  0  0  0  0  0
    0.3122    0.8775   -1.7646 C   0  0  0  0  0  0  0  0  0  0  0  0
    0.3145   -0.3390   -2.7175 C   0  0  0  0  0  0  0  0  0  0  0  0
    1.4113   -0.7024   -3.1905 O   0  0  0  0  0  0  0  0  0  0  0  0
   -0.7847   -0.9077   -2.9422 O   0  0  0  0  0  0  0  0  0  0  0  0
    0.5432   -1.2650    1.7204 H   0  0  0  0  0  0  0  0  0  0  0  0
   -0.3372    0.0515    2.2380 H   0  0  0  0  0  0  0  0  0  0  0  0
   -1.4863    0.2190    0.1664 H   0  0  0  0  0  0  0  0  0  0  0  0
   -0.7092   -1.2576   -0.3916 H   0  0  0  0  0  0  0  0  0  0  0  0
    1.5103   -0.1528   -0.3270 H   0  0  0  0  0  0  0  0  0  0  0  0
    0.7553    1.3357    0.2786 H   0  0  0  0  0  0  0  0  0  0  0  0
   -0.6566    1.3736   -1.8267 H   0  0  0  0  0  0  0  0  0  0  0  0
    1.0919    1.5611   -2.1036 H   0  0  0  0  0  0  0  0  0  0  0  0
   -1.1348   -1.4270    1.9435 H   0  0  0  0  0  0  0  0  0  0  0  0
   -3.6378    0.9983    5.5405 O   0  0  0  0  0  0  0  0  0  0  0  0
   -3.1224    0.3372    6.0148 H   0  0  0  0  0  0  0  0  0  0  0  0
   -4.4049    0.5440    5.1753 H   0  0  0  0  0  0  0  0  0  0  0  0
   -2.8021    2.5019   -1.4784 O   0  0  0  0  0  0  0  0  0  0  0  0
   -3.1092    3.0830   -2.1802 H   0  0  0  0  0  0  0  0  0  0  0  0
   -2.9699    2.9828   -0.6461 H   0  0  0  0  0  0  0  0  0  0  0  0
   -3.1980   -0.2670   -1.8082 O   0  0  0  0  0  0  0  0  0  0  0  0
   -3.1174    0.6995   -1.7193 H   0  0  0  0  0  0  0  0  0  0  0  0
   -2.3797   -0.5502   -2.2649 H   0  0  0  0  0  0  0  0  0  0  0  0
   -3.1755    3.9423    0.8919 O   0  0  0  0  0  0  0  0  0  0  0  0
   -2.4335    4.4591    1.2218 H   0  0  0  0  0  0  0  0  0  0  0  0
   -3.6640    3.6213    1.6576 H   0  0  0  0  0  0  0  0  0  0  0  0
    2.6428    3.5161   -2.8673 O   0  0  0  0  0  0  0  0  0  0  0  0
    2.3722    3.8899   -3.7121 H   0  0  0  0  0  0  0  0  0  0  0  0
    3.5505    3.2135   -2.9735 H   0  0  0  0  0  0  0  0  0  0  0  0
   -2.3552   -2.4223    2.2396 O   0  0  0  0  0  0  0  0  0  0  0  0
   -3.0580   -2.0696    1.6558 H   0  0  0  0  0  0  0  0  0  0  0  0
   -2.2477   -3.3467    1.9983 H   0  0  0  0  0  0  0  0  0  0  0  0
   -4.1447   -1.4146    0.4745 O   0  0  0  0  0  0  0  0  0  0  0  0
   -3.7869   -1.0934   -0.3778 H   0  0  0  0  0  0  0  0  0  0  0  0
   -4.9647   -0.9337    0.6155 H   0  0  0  0  0  0  0  0  0  0  0  0
  1  2  1  0  0  0  0
  2  3  1  0  0  0  0
  3  4  1  0  0  0  0
  4  5  1  0  0  0  0
  5  6  2  0  0  0  0
  5  7  4  0  0  0  0
  1  8  1  0  0  0  0
  1  9  1  0  0  0  0
  2 10  1  0  0  0  0
  2 11  1  0  0  0  0
  3 12  1  0  0  0  0
  3 13  1  0  0  0  0
  4 14  1  0  0  0  0
  4 15  1  0  0  0  0
  1 16  1  0  0  0  0
 17 18  1  0  0  0  0
 17 19  1  0  0  0  0
 20 21  1  0  0  0  0
 20 22  1  0  0  0  0
 23 24  1  0  0  0  0
 23 25  1  0  0  0  0
 26 27  1  0  0  0  0
 26 28  1  0  0  0  0
 29 30  1  0  0  0  0
 29 31  1  0  0  0  0
 32 33  1  0  0  0  0
 32 34  1  0  0  0  0
 35 36  1  0  0  0  0
 35 37  1  0  0  0  0
M  END
