          34
  Built with Packmol                                             
  H            1.511317       -0.306828       -0.555014
  C            0.423564       -0.532721       -0.609717
  H            0.153518        0.482840       -2.377127
  H            0.306225       -1.519929       -1.108019
  N           -0.266872        0.473091       -1.420552
  H            0.312435       -1.513062        1.312585
  C           -0.165166       -0.646649        0.806799
  O            0.750464        1.631323        1.241066
  C            0.056943        0.562514        1.678499
  H           -0.170369        1.427689       -1.011410
  O           -0.378051        0.562370        2.818531
  H           -1.279945        0.228297       -1.503809
  H           -1.254063       -0.848936        0.728169
  O           -0.874743       -2.080949        4.717263
  H           -0.904965       -1.954409        3.735588
  H           -1.822094       -2.195299        4.981956
  O            2.782034       -2.892706        3.623680
  H            2.703571       -2.876511        2.636668
  H            2.019908       -3.449081        3.924052
  O           -2.078662       -3.496440        2.694659
  H           -2.337674       -4.438508        2.856002
  H           -2.782514       -2.965009        3.144977
  O            1.157395       -1.313144        4.371657
  H            1.192798       -1.389882        3.385012
  H            2.080578       -1.070133        4.634890
  O           -0.058910       -3.966964        3.425600
  H           -0.192321       -4.880325        3.067012
  H           -0.028013       -4.088155        4.407929
  O           -3.269177       -0.839446        3.431186
  H           -3.585985        0.067988        3.669529
  H           -3.790885       -1.080519        2.624763
  O           -1.158999        0.395664        5.368438
  H           -0.305619       -0.095583        5.473462
  H           -1.578496       -0.004578        4.565667
