          34
  Built with Packmol                                             
  H            1.511317       -0.306828       -0.555014
  C            0.423564       -0.532721       -0.609717
  H            0.153518        0.482840       -2.377127
  H            0.306225       -1.519929       -1.108019
  N           -0.266872        0.473091       -1.420552
  H            0.312435       -1.513062        1.312585
  C           -0.165166       -0.646649        0.806799
  O            0.750464        1.631323        1.241066
  C            0.056943        0.562514        1.678499
  H           -0.170369        1.427689       -1.011410
  O           -0.378051        0.562370        2.818531
  H           -1.279945        0.228297       -1.503809
  H           -1.254063       -0.848936        0.728169
  O            3.232233       -1.122739        1.743138
  H            2.609395       -1.162566        2.511967
  H            3.986857       -0.567394        2.063682
  O           -3.319220       -2.436307       -2.074641
  H           -3.263128       -1.587770       -2.582035
  H           -3.214356       -2.166500       -1.127635
  O            2.872397        3.049747       -3.499512
  H            2.372954        3.060041       -4.354534
  H            2.375714        3.675599       -2.914510
  O            2.910288       -3.795564        2.586580
  H            3.645301       -3.134248        2.531556
  H            2.099761       -3.287518        2.330555
  O            3.434011        1.588991        2.587096
  H            3.642148        2.546087        2.441296
  H            2.836861        1.347575        1.834937
  O           -2.294418       -2.963124       -5.058894
  H           -2.094595       -3.538121       -4.277830
  H           -2.547351       -2.090044       -4.665996
  O            3.467401        0.892706       -0.945760
  H            4.142423        1.603262       -1.087411
  H            2.871978        0.955349       -1.734531
