          34
  Built with Packmol                                             
  H            1.511317       -0.306828       -0.555014
  C            0.423564       -0.532721       -0.609717
  H            0.153518        0.482840       -2.377127
  H            0.306225       -1.519929       -1.108019
  N           -0.266872        0.473091       -1.420552
  H            0.312435       -1.513062        1.312585
  C           -0.165166       -0.646649        0.806799
  O            0.750464        1.631323        1.241066
  C            0.056943        0.562514        1.678499
  H           -0.170369        1.427689       -1.011410
  O           -0.378051        0.562370        2.818531
  H           -1.279945        0.228297       -1.503809
  H           -1.254063       -0.848936        0.728169
  O            3.568222       -2.798510        1.039872
  H            3.000367       -1.990802        0.963976
  H            4.046007       -2.848147        0.173921
  O           -1.060373       -3.968723        4.189739
  H           -0.998961       -2.997067        4.008839
  H           -1.802974       -4.281774        3.614279
  O            0.550680       -3.621607       -4.804723
  H            1.527675       -3.460241       -4.812026
  H            0.222039       -3.191895       -5.634154
  O            2.014043       -2.893114        4.438554
  H            1.898333       -3.875227        4.386807
  H            2.797371       -2.704906        3.862718
  O            0.759990       -4.617496        0.812168
  H            1.563140       -4.985776        0.365032
  H            0.887531       -4.834930        1.769805
  O           -1.053820       -3.400268        0.739104
  H           -1.280143       -4.155370        0.139763
  H           -1.736970       -3.438348        1.454973
  O            1.631229       -1.979550       -3.201318
  H            1.012070       -2.660746       -2.836317
  H            1.061661       -1.409672       -3.777030
