          34
  Built with Packmol                                             
  H            1.511317       -0.306828       -0.555014
  C            0.423564       -0.532721       -0.609717
  H            0.153518        0.482840       -2.377127
  H            0.306225       -1.519929       -1.108019
  N           -0.266872        0.473091       -1.420552
  H            0.312435       -1.513062        1.312585
  C           -0.165166       -0.646649        0.806799
  O            0.750464        1.631323        1.241066
  C            0.056943        0.562514        1.678499
  H           -0.170369        1.427689       -1.011410
  O           -0.378051        0.562370        2.818531
  H           -1.279945        0.228297       -1.503809
  H           -1.254063       -0.848936        0.728169
  O            1.404311        1.815235        5.766798
  H            2.358052        1.548930        5.775219
  H            0.960415        1.167095        6.369694
  O            3.110198       -1.810063        1.647021
  H            2.881915       -1.075466        1.023430
  H            2.287347       -1.947268        2.180598
  O            1.165524       -1.364768        5.729007
  H            0.338051       -0.915177        6.035220
  H            1.899311       -0.802837        6.084539
  O            2.100931       -0.372449        3.932880
  H            1.396889        0.272921        4.194480
  H            2.936293        0.007266        4.305172
  O            3.168590        0.748793        2.220426
  H            2.466548        1.335166        2.599785
  H            4.007413        1.263730        2.329192
  O            2.738496       -2.379317        4.610670
  H            3.449066       -2.547542        3.941788
  H            1.917133       -2.747752        4.198080
  O            1.493026        3.055324        3.577020
  H            1.022786        3.455915        4.350978
  H            2.452859        3.217372        3.758882
