          34
  Built with Packmol                                             
  H            1.511317       -0.306828       -0.555014
  C            0.423564       -0.532721       -0.609717
  H            0.153518        0.482840       -2.377127
  H            0.306225       -1.519929       -1.108019
  N           -0.266872        0.473091       -1.420552
  H            0.312435       -1.513062        1.312585
  C           -0.165166       -0.646649        0.806799
  O            0.750464        1.631323        1.241066
  C            0.056943        0.562514        1.678499
  H           -0.170369        1.427689       -1.011410
  O           -0.378051        0.562370        2.818531
  H           -1.279945        0.228297       -1.503809
  H           -1.254063       -0.848936        0.728169
  O            0.952044       -3.275214        2.944574
  H            1.905680       -3.521684        3.046763
  H            0.505428       -3.680888        3.729798
  O           -1.521148       -3.152034        4.377813
  H           -1.778027       -2.195679        4.380821
  H           -2.137562       -3.572451        3.726739
  O            3.971623       -1.358668       -1.280904
  H            3.319844       -2.059398       -1.026400
  H            3.968025       -0.727560       -0.517816
  O           -1.285117       -3.689331        1.284836
  H           -0.301720       -3.675456        1.169300
  H           -1.625206       -3.070063        0.590963
  O            1.861360       -3.580786       -3.065034
  H            2.420189       -2.779074       -2.905103
  H            1.210649       -3.296013       -3.755029
  O           -2.156393       -3.405419       -2.959872
  H           -2.158735       -2.450775       -2.696697
  H           -1.545749       -3.446666       -3.738349
  O           -1.986080       -4.975818       -0.446659
  H           -1.467206       -4.555017       -1.177622
  H           -2.870022       -4.530822       -0.481843
