          34
  Built with Packmol                                             
  H            1.511317       -0.306828       -0.555014
  C            0.423564       -0.532721       -0.609717
  H            0.153518        0.482840       -2.377127
  H            0.306225       -1.519929       -1.108019
  N           -0.266872        0.473091       -1.420552
  H            0.312435       -1.513062        1.312585
  C           -0.165166       -0.646649        0.806799
  O            0.750464        1.631323        1.241066
  C            0.056943        0.562514        1.678499
  H           -0.170369        1.427689       -1.011410
  O           -0.378051        0.562370        2.818531
  H           -1.279945        0.228297       -1.503809
  H           -1.254063       -0.848936        0.728169
  O           -1.838677       -4.276098        0.463386
  H           -1.177777       -4.505867       -0.237349
  H           -2.686853       -4.676036        0.145171
  O           -1.129020       -2.741940       -3.186274
  H           -0.529580       -3.487828       -2.931453
  H           -1.910514       -3.183493       -3.604499
  O           -0.849641       -2.373014        3.567243
  H           -0.312391       -1.554205        3.420523
  H           -1.706593       -2.193695        3.104545
  O           -1.266583       -4.293522        2.584631
  H           -2.246358       -4.290135        2.728300
  H           -0.891857       -4.628201        3.437967
  O           -2.873070       -2.457578       -1.009362
  H           -2.933257       -1.748716       -1.698204
  H           -2.413786       -3.207538       -1.464589
  O           -1.868935       -2.664090        5.494113
  H           -1.454410       -1.770550        5.595928
  H           -2.726614       -2.488426        5.031359
  O           -3.636762       -1.937747        1.440953
  H           -2.821694       -2.457159        1.225346
  H           -3.346350       -0.991927        1.399755
