          34
  Built with Packmol                                             
  H            1.511317       -0.306828       -0.555014
  C            0.423564       -0.532721       -0.609717
  H            0.153518        0.482840       -2.377127
  H            0.306225       -1.519929       -1.108019
  N           -0.266872        0.473091       -1.420552
  H            0.312435       -1.513062        1.312585
  C           -0.165166       -0.646649        0.806799
  O            0.750464        1.631323        1.241066
  C            0.056943        0.562514        1.678499
  H           -0.170369        1.427689       -1.011410
  O           -0.378051        0.562370        2.818531
  H           -1.279945        0.228297       -1.503809
  H           -1.254063       -0.848936        0.728169
  O           -2.385791       -1.134237       -5.552654
  H           -2.420171       -1.485335       -4.627366
  H           -2.007465       -1.877727       -6.086232
  O            0.230370        3.852472       -4.263488
  H            0.031058        2.975404       -4.677780
  H            0.146778        3.691723       -3.289945
  O           -0.709859       -3.250998       -4.669185
  H           -1.656265       -3.541905       -4.686473
  H           -0.653078       -2.637242       -3.894142
  O           -2.789258        1.495211       -3.940822
  H           -2.921851        0.742564       -3.311097
  H           -2.570397        1.061219       -4.803587
  O            0.213135       -1.356347       -5.453906
  H            0.196362       -1.980835       -6.222244
  H           -0.274864       -0.556257       -5.773790
  O            1.543232       -3.779136       -2.843610
  H            0.884409       -4.176183       -3.467241
  H            1.001202       -3.466443       -2.076121
  O            2.433881       -1.857872       -4.082043
  H            2.356916       -1.605759       -5.036572
  H            1.514853       -1.763330       -3.725584
