          34
  Built with Packmol                                             
  H            1.511317       -0.306828       -0.555014
  C            0.423564       -0.532721       -0.609717
  H            0.153518        0.482840       -2.377127
  H            0.306225       -1.519929       -1.108019
  N           -0.266872        0.473091       -1.420552
  H            0.312435       -1.513062        1.312585
  C           -0.165166       -0.646649        0.806799
  O            0.750464        1.631323        1.241066
  C            0.056943        0.562514        1.678499
  H           -0.170369        1.427689       -1.011410
  O           -0.378051        0.562370        2.818531
  H           -1.279945        0.228297       -1.503809
  H           -1.254063       -0.848936        0.728169
  O            2.192099       -0.450389        4.381923
  H            2.399217       -0.411728        5.349507
  H            2.292643       -1.406540        4.144691
  O            2.006887        1.760046        4.376302
  H            2.933933        1.614948        4.692757
  H            2.004024        2.689428        4.034464
  O           -2.765368        1.469932       -4.112483
  H           -2.454451        1.826972       -4.982232
  H           -1.987650        0.970533       -3.756998
  O           -0.796583       -3.260883        4.528340
  H           -0.607212       -2.559249        5.200990
  H           -1.224364       -2.776346        3.778113
  O           -2.216325       -2.386594       -4.105744
  H           -2.882864       -1.658582       -4.185342
  H           -2.543527       -3.090824       -4.720245
  O           -2.634489       -3.412986       -1.510198
  H           -1.784677       -2.905626       -1.478335
  H           -3.168845       -2.958307       -2.209014
  O           -0.030161       -2.502593       -4.332308
  H           -0.364246       -3.076968       -5.066537
  H            0.939760       -2.697028       -4.286920
