 xtb: 6.7.1 (edcfbbe)
          06092517583D

 34 26  0     0  0            999 V2000
    0.3431   -1.2596   -1.5068 H   0  0  0  0  0  0  0  0  0  0  0  0
   -0.5875   -0.7163   -1.3329 C   0  0  0  0  0  0  0  0  0  0  0  0
   -0.1201    0.4221   -3.0325 H   0  0  0  0  0  0  0  0  0  0  0  0
   -1.4214   -1.3363   -1.6607 H   0  0  0  0  0  0  0  0  0  0  0  0
   -0.5546    0.5508   -2.0937 N   0  0  0  0  0  0  0  0  0  0  0  0
   -0.6927   -1.3633    0.7213 H   0  0  0  0  0  0  0  0  0  0  0  0
   -0.7096   -0.4302    0.1608 C   0  0  0  0  0  0  0  0  0  0  0  0
    0.7134    1.4932    0.0017 O   0  0  0  0  0  0  0  0  0  0  0  0
    0.4408    0.4667    0.6733 C   0  0  0  0  0  0  0  0  0  0  0  0
    0.0313    1.1951   -1.4944 H   0  0  0  0  0  0  0  0  0  0  0  0
    1.0200    0.1316    1.7262 O   0  0  0  0  0  0  0  0  0  0  0  0
   -1.4859    0.9555   -2.1918 H   0  0  0  0  0  0  0  0  0  0  0  0
   -1.6418    0.0931    0.3842 H   0  0  0  0  0  0  0  0  0  0  0  0
   -0.2265   -3.7925    0.8440 O   0  0  0  0  0  0  0  0  0  0  0  0
   -0.7440   -4.5985    0.7496 H   0  0  0  0  0  0  0  0  0  0  0  0
    0.3490   -3.9255    1.6148 H   0  0  0  0  0  0  0  0  0  0  0  0
    0.6813    0.0871   -4.5219 O   0  0  0  0  0  0  0  0  0  0  0  0
    0.5629   -0.7596   -4.9633 H   0  0  0  0  0  0  0  0  0  0  0  0
    1.6200    0.2942   -4.5401 H   0  0  0  0  0  0  0  0  0  0  0  0
    1.7789   -4.2092    2.7798 O   0  0  0  0  0  0  0  0  0  0  0  0
    2.3382   -4.9674    2.5817 H   0  0  0  0  0  0  0  0  0  0  0  0
    2.0266   -3.9270    3.6876 H   0  0  0  0  0  0  0  0  0  0  0  0
    2.7729   -3.2588    5.1135 O   0  0  0  0  0  0  0  0  0  0  0  0
    3.5206   -2.7754    4.7038 H   0  0  0  0  0  0  0  0  0  0  0  0
    2.2836   -2.6045    5.6199 H   0  0  0  0  0  0  0  0  0  0  0  0
    1.8185   -2.8232   -0.8799 O   0  0  0  0  0  0  0  0  0  0  0  0
    1.0766   -3.2292   -0.3979 H   0  0  0  0  0  0  0  0  0  0  0  0
    2.3786   -2.4481   -0.1809 H   0  0  0  0  0  0  0  0  0  0  0  0
    2.8229   -1.9139    1.6181 O   0  0  0  0  0  0  0  0  0  0  0  0
    2.3627   -2.6887    2.0067 H   0  0  0  0  0  0  0  0  0  0  0  0
    2.2043   -1.1657    1.7154 H   0  0  0  0  0  0  0  0  0  0  0  0
    4.6509   -1.8895    3.6563 O   0  0  0  0  0  0  0  0  0  0  0  0
    5.4848   -2.2284    3.3173 H   0  0  0  0  0  0  0  0  0  0  0  0
    4.0688   -1.7686    2.8755 H   0  0  0  0  0  0  0  0  0  0  0  0
  1  2  1  0  0  0  0
  2  4  1  0  0  0  0
  2  5  1  0  0  0  0
  3  5  1  0  0  0  0
  2  7  1  0  0  0  0
  6  7  1  0  0  0  0
  7  9  1  0  0  0  0
  8  9  4  0  0  0  0
  5 10  1  0  0  0  0
  9 11  4  0  0  0  0
  5 12  1  0  0  0  0
  7 13  1  0  0  0  0
 14 15  1  0  0  0  0
 14 16  1  0  0  0  0
 17 18  1  0  0  0  0
 17 19  1  0  0  0  0
 20 21  1  0  0  0  0
 20 22  1  0  0  0  0
 23 24  1  0  0  0  0
 23 25  1  0  0  0  0
 26 27  1  0  0  0  0
 26 28  1  0  0  0  0
 29 30  1  0  0  0  0
 29 31  1  0  0  0  0
 32 33  1  0  0  0  0
 32 34  1  0  0  0  0
M  END
