 xtb: 6.7.1 (edcfbbe)
          06092518073D

 37 29  0     0  0            999 V2000
   -1.0587   -1.0881    1.0314 N   0  0  0  0  0  0  0  0  0  0  0  0
   -0.6951    0.3398    1.0415 C   0  0  0  0  0  0  0  0  0  0  0  0
   -0.1658    0.7855   -0.3190 C   0  0  0  0  0  0  0  0  0  0  0  0
    1.2786    0.3574   -0.6024 C   0  0  0  0  0  0  0  0  0  0  0  0
    1.5076   -1.0843   -1.1148 C   0  0  0  0  0  0  0  0  0  0  0  0
    2.4423   -1.2498   -1.9212 O   0  0  0  0  0  0  0  0  0  0  0  0
    0.7746   -2.0069   -0.6776 O   0  0  0  0  0  0  0  0  0  0  0  0
   -0.9950   -1.4977    1.9802 H   0  0  0  0  0  0  0  0  0  0  0  0
   -2.0216   -1.2277    0.6749 H   0  0  0  0  0  0  0  0  0  0  0  0
   -1.5737    0.9299    1.3011 H   0  0  0  0  0  0  0  0  0  0  0  0
    0.0721    0.5051    1.7993 H   0  0  0  0  0  0  0  0  0  0  0  0
   -0.1920    1.8753   -0.3535 H   0  0  0  0  0  0  0  0  0  0  0  0
   -0.8165    0.4126   -1.1117 H   0  0  0  0  0  0  0  0  0  0  0  0
    1.8883    0.4547    0.3008 H   0  0  0  0  0  0  0  0  0  0  0  0
    1.7227    1.0061   -1.3605 H   0  0  0  0  0  0  0  0  0  0  0  0
   -0.3786   -1.5829    0.3896 H   0  0  0  0  0  0  0  0  0  0  0  0
   -0.7590   -2.1439    3.6144 O   0  0  0  0  0  0  0  0  0  0  0  0
   -1.5070   -2.5941    4.0195 H   0  0  0  0  0  0  0  0  0  0  0  0
    0.0094   -2.7110    3.7229 H   0  0  0  0  0  0  0  0  0  0  0  0
   -4.7774   -0.9989   -2.1801 O   0  0  0  0  0  0  0  0  0  0  0  0
   -4.2951   -1.5320   -2.8412 H   0  0  0  0  0  0  0  0  0  0  0  0
   -5.6959   -0.9769   -2.4642 H   0  0  0  0  0  0  0  0  0  0  0  0
   -2.4526    0.5065   -2.9730 O   0  0  0  0  0  0  0  0  0  0  0  0
   -2.6039    1.3262   -3.4524 H   0  0  0  0  0  0  0  0  0  0  0  0
   -3.2902    0.2884   -2.5321 H   0  0  0  0  0  0  0  0  0  0  0  0
   -3.7630   -1.3795    0.3889 O   0  0  0  0  0  0  0  0  0  0  0  0
   -4.4587   -1.0730    0.9768 H   0  0  0  0  0  0  0  0  0  0  0  0
   -4.1020   -1.2835   -0.5169 H   0  0  0  0  0  0  0  0  0  0  0  0
   -1.5395   -6.4187    1.1246 O   0  0  0  0  0  0  0  0  0  0  0  0
   -0.6663   -6.2185    0.7737 H   0  0  0  0  0  0  0  0  0  0  0  0
   -2.1645   -5.8599    0.6505 H   0  0  0  0  0  0  0  0  0  0  0  0
   -2.4897    5.9519   -4.0224 O   0  0  0  0  0  0  0  0  0  0  0  0
   -1.8347    5.9531   -4.7273 H   0  0  0  0  0  0  0  0  0  0  0  0
   -2.0191    6.1151   -3.1987 H   0  0  0  0  0  0  0  0  0  0  0  0
   -3.0218   -2.0440   -4.0353 O   0  0  0  0  0  0  0  0  0  0  0  0
   -2.5513   -1.2062   -3.8788 H   0  0  0  0  0  0  0  0  0  0  0  0
   -2.3829   -2.7460   -3.8837 H   0  0  0  0  0  0  0  0  0  0  0  0
  1  2  1  0  0  0  0
  2  3  1  0  0  0  0
  3  4  1  0  0  0  0
  4  5  1  0  0  0  0
  5  6  2  0  0  0  0
  5  7  4  0  0  0  0
  1  8  1  0  0  0  0
  1  9  1  0  0  0  0
  2 10  1  0  0  0  0
  2 11  1  0  0  0  0
  3 12  1  0  0  0  0
  3 13  1  0  0  0  0
  4 14  1  0  0  0  0
  4 15  1  0  0  0  0
  1 16  1  0  0  0  0
 17 18  1  0  0  0  0
 17 19  1  0  0  0  0
 20 21  1  0  0  0  0
 20 22  1  0  0  0  0
 23 24  1  0  0  0  0
 23 25  1  0  0  0  0
 26 27  1  0  0  0  0
 26 28  1  0  0  0  0
 29 30  1  0  0  0  0
 29 31  1  0  0  0  0
 32 33  1  0  0  0  0
 32 34  1  0  0  0  0
 35 36  1  0  0  0  0
 35 37  1  0  0  0  0
M  END
