 xtb: 6.7.1 (edcfbbe)
          06092517593D

 34 26  0     0  0            999 V2000
    1.1361   -0.3141   -0.2914 H   0  0  0  0  0  0  0  0  0  0  0  0
    0.3098   -0.1543   -0.9876 C   0  0  0  0  0  0  0  0  0  0  0  0
    1.6163    0.3086   -2.5545 H   0  0  0  0  0  0  0  0  0  0  0  0
   -0.0051   -1.1181   -1.3903 H   0  0  0  0  0  0  0  0  0  0  0  0
    0.7708    0.6973   -2.0913 N   0  0  0  0  0  0  0  0  0  0  0  0
   -1.3433   -0.2697    0.3878 H   0  0  0  0  0  0  0  0  0  0  0  0
   -0.8599    0.4819   -0.2359 C   0  0  0  0  0  0  0  0  0  0  0  0
   -0.4783    2.7878    0.3173 O   0  0  0  0  0  0  0  0  0  0  0  0
   -0.3796    1.6061    0.7114 C   0  0  0  0  0  0  0  0  0  0  0  0
    1.0329    1.6532   -1.7569 H   0  0  0  0  0  0  0  0  0  0  0  0
    0.1024    1.2502    1.8114 O   0  0  0  0  0  0  0  0  0  0  0  0
    0.0481    0.8334   -2.8258 H   0  0  0  0  0  0  0  0  0  0  0  0
   -1.5864    0.8986   -0.9332 H   0  0  0  0  0  0  0  0  0  0  0  0
    3.7105    0.0736   -0.9222 O   0  0  0  0  0  0  0  0  0  0  0  0
    3.6750    0.1496   -1.8919 H   0  0  0  0  0  0  0  0  0  0  0  0
    4.4886   -0.4494   -0.7149 H   0  0  0  0  0  0  0  0  0  0  0  0
    1.4746    3.3131   -1.5129 O   0  0  0  0  0  0  0  0  0  0  0  0
    2.2928    3.2099   -0.9697 H   0  0  0  0  0  0  0  0  0  0  0  0
    0.7471    3.4279   -0.8785 H   0  0  0  0  0  0  0  0  0  0  0  0
    3.5728    2.6605    0.0076 O   0  0  0  0  0  0  0  0  0  0  0  0
    3.2459    2.6223    0.9227 H   0  0  0  0  0  0  0  0  0  0  0  0
    3.6647    1.7255   -0.2771 H   0  0  0  0  0  0  0  0  0  0  0  0
    1.9623    2.8101   -4.1887 O   0  0  0  0  0  0  0  0  0  0  0  0
    1.8004    3.1085   -3.2740 H   0  0  0  0  0  0  0  0  0  0  0  0
    2.4135    3.5326   -4.6324 H   0  0  0  0  0  0  0  0  0  0  0  0
    2.4800    2.2801    2.5471 O   0  0  0  0  0  0  0  0  0  0  0  0
    1.5641    1.9923    2.3386 H   0  0  0  0  0  0  0  0  0  0  0  0
    2.8068    1.6491    3.1964 H   0  0  0  0  0  0  0  0  0  0  0  0
   -0.5481    1.5294   -4.3713 O   0  0  0  0  0  0  0  0  0  0  0  0
    0.2760    2.0250   -4.5276 H   0  0  0  0  0  0  0  0  0  0  0  0
   -1.2684    2.1573   -4.4577 H   0  0  0  0  0  0  0  0  0  0  0  0
    3.0335    0.3218   -3.6419 O   0  0  0  0  0  0  0  0  0  0  0  0
    2.7904    1.2232   -3.9337 H   0  0  0  0  0  0  0  0  0  0  0  0
    3.0585   -0.2318   -4.4265 H   0  0  0  0  0  0  0  0  0  0  0  0
  1  2  1  0  0  0  0
  2  4  1  0  0  0  0
  2  5  1  0  0  0  0
  3  5  1  0  0  0  0
  2  7  1  0  0  0  0
  6  7  1  0  0  0  0
  7  9  1  0  0  0  0
  8  9  4  0  0  0  0
  5 10  1  0  0  0  0
  9 11  4  0  0  0  0
  5 12  1  0  0  0  0
  7 13  1  0  0  0  0
 14 15  1  0  0  0  0
 14 16  1  0  0  0  0
 17 18  1  0  0  0  0
 17 19  1  0  0  0  0
 20 21  1  0  0  0  0
 20 22  1  0  0  0  0
 23 24  1  0  0  0  0
 23 25  1  0  0  0  0
 26 27  1  0  0  0  0
 26 28  1  0  0  0  0
 29 30  1  0  0  0  0
 29 31  1  0  0  0  0
 32 33  1  0  0  0  0
 32 34  1  0  0  0  0
M  END
