          37
  Built with Packmol                                             
  N           -0.443767       -0.471812        1.745205
  C            0.693510        0.104360        1.026899
  C            0.252325        0.999585       -0.146245
  C           -0.573823        0.306802       -1.244857
  C            0.172762       -0.788129       -1.957711
  O            0.408222       -0.687945       -3.151027
  O            0.546344       -1.903284       -1.303739
  H           -0.087472       -1.004114        2.571270
  H           -1.081184        0.285863        2.081386
  H            1.280979        0.732860        1.731174
  H            1.368045       -0.703734        0.677139
  H            1.158667        1.443130       -0.611175
  H           -0.355788        1.834342        0.265274
  H           -1.517364       -0.100802       -0.829235
  H           -0.852734        1.086771       -1.985872
  H           -0.968720       -1.133893        1.131516
  O            2.987723        1.574360       -4.465736
  H            3.859200        1.671975       -4.005726
  H            2.682060        0.663115       -4.227379
  O            3.494861       -1.300238        2.275010
  H            2.521226       -1.264200        2.452061
  H            3.891065       -0.683279        2.940590
  O            4.113609        0.301077        0.909242
  H            4.403190       -0.046547        0.028384
  H            3.237647        0.727515        0.731893
  O            3.337284       -1.279786       -3.007067
  H            3.272350       -2.267576       -3.032849
  H            3.960610       -1.052851       -3.742307
  O            3.389715        2.263644        2.300458
  H            3.227108        2.276731        3.277186
  H            3.538017        3.212974        2.060891
  O            2.817740        3.609445       -2.651164
  H            2.591774        4.570814       -2.724111
  H            2.123410        3.236166       -2.051846
  O            4.087741        2.852051       -1.028290
  H            3.952866        1.871569       -0.995517
  H            3.535562        3.203421       -0.285154
