 xtb: 6.7.1 (edcfbbe)
          06092518073D

 37 29  0     0  0            999 V2000
   -0.4576   -0.9327    1.6168 N   0  0  0  0  0  0  0  0  0  0  0  0
   -0.1869    0.5026    1.4200 C   0  0  0  0  0  0  0  0  0  0  0  0
   -0.5913    0.9731    0.0265 C   0  0  0  0  0  0  0  0  0  0  0  0
    0.2920    0.4115   -1.0969 C   0  0  0  0  0  0  0  0  0  0  0  0
   -0.1536   -0.9232   -1.7230 C   0  0  0  0  0  0  0  0  0  0  0  0
    0.1363   -1.1357   -2.9110 O   0  0  0  0  0  0  0  0  0  0  0  0
   -0.7819   -1.7436   -0.9924 O   0  0  0  0  0  0  0  0  0  0  0  0
    0.2319   -1.3443    2.2853 H   0  0  0  0  0  0  0  0  0  0  0  0
   -1.4293   -1.1253    1.9544 H   0  0  0  0  0  0  0  0  0  0  0  0
   -0.7399    1.0757    2.1628 H   0  0  0  0  0  0  0  0  0  0  0  0
    0.8798    0.6813    1.5625 H   0  0  0  0  0  0  0  0  0  0  0  0
   -0.5106    2.0605    0.0042 H   0  0  0  0  0  0  0  0  0  0  0  0
   -1.6341    0.7148   -0.1609 H   0  0  0  0  0  0  0  0  0  0  0  0
    1.3129    0.2550   -0.7377 H   0  0  0  0  0  0  0  0  0  0  0  0
    0.3527    1.1170   -1.9276 H   0  0  0  0  0  0  0  0  0  0  0  0
   -0.3999   -1.4075    0.6950 H   0  0  0  0  0  0  0  0  0  0  0  0
    0.0558    4.4458    0.2239 O   0  0  0  0  0  0  0  0  0  0  0  0
    0.3334    5.0213   -0.4947 H   0  0  0  0  0  0  0  0  0  0  0  0
    0.1572    4.9480    1.0392 H   0  0  0  0  0  0  0  0  0  0  0  0
   -1.8024   -3.9037    0.5567 O   0  0  0  0  0  0  0  0  0  0  0  0
   -2.1064   -4.6641    0.0553 H   0  0  0  0  0  0  0  0  0  0  0  0
   -1.3928   -3.2983   -0.0792 H   0  0  0  0  0  0  0  0  0  0  0  0
   -3.4225   -1.0001   -0.5246 O   0  0  0  0  0  0  0  0  0  0  0  0
   -3.9992   -1.2615   -1.2464 H   0  0  0  0  0  0  0  0  0  0  0  0
   -2.5258   -1.3077   -0.7541 H   0  0  0  0  0  0  0  0  0  0  0  0
    0.6166   -0.4288    5.8006 O   0  0  0  0  0  0  0  0  0  0  0  0
   -0.2793   -0.5570    6.1277 H   0  0  0  0  0  0  0  0  0  0  0  0
    0.9063    0.4430    6.0840 H   0  0  0  0  0  0  0  0  0  0  0  0
    1.4308   -1.7252    3.4300 O   0  0  0  0  0  0  0  0  0  0  0  0
    1.5004   -2.6716    3.6405 H   0  0  0  0  0  0  0  0  0  0  0  0
    1.2264   -1.2850    4.2722 H   0  0  0  0  0  0  0  0  0  0  0  0
   -2.9927   -1.8561    2.0900 O   0  0  0  0  0  0  0  0  0  0  0  0
   -2.6953   -2.7288    1.7801 H   0  0  0  0  0  0  0  0  0  0  0  0
   -3.3877   -1.4461    1.3022 H   0  0  0  0  0  0  0  0  0  0  0  0
    1.3656   -4.4666    4.0617 O   0  0  0  0  0  0  0  0  0  0  0  0
    0.5374   -4.7543    4.4598 H   0  0  0  0  0  0  0  0  0  0  0  0
    1.6009   -5.1159    3.3927 H   0  0  0  0  0  0  0  0  0  0  0  0
  1  2  1  0  0  0  0
  2  3  1  0  0  0  0
  3  4  1  0  0  0  0
  4  5  1  0  0  0  0
  5  6  2  0  0  0  0
  5  7  4  0  0  0  0
  1  8  1  0  0  0  0
  1  9  1  0  0  0  0
  2 10  1  0  0  0  0
  2 11  1  0  0  0  0
  3 12  1  0  0  0  0
  3 13  1  0  0  0  0
  4 14  1  0  0  0  0
  4 15  1  0  0  0  0
  1 16  1  0  0  0  0
 17 18  1  0  0  0  0
 17 19  1  0  0  0  0
 20 21  1  0  0  0  0
 20 22  1  0  0  0  0
 23 24  1  0  0  0  0
 23 25  1  0  0  0  0
 26 27  1  0  0  0  0
 26 28  1  0  0  0  0
 29 30  1  0  0  0  0
 29 31  1  0  0  0  0
 32 33  1  0  0  0  0
 32 34  1  0  0  0  0
 35 36  1  0  0  0  0
 35 37  1  0  0  0  0
M  END
