         166
  Built with Packmol                                             
  N            0.002605        0.268339        2.349498
  C            0.005610       -0.534268        1.127824
  C           -0.013605        0.360442       -0.117570
  C           -0.006580       -0.484114       -1.399583
  C            0.005309        0.346063       -2.655593
  O            0.015980        1.566588       -2.611145
  O            0.010136       -0.270580       -3.851920
  H            0.843830        0.889238        2.373417
  H           -0.867625        0.846216        2.397033
  H           -0.885896       -1.198618        1.124039
  H            0.917756       -1.170846        1.111005
  H            0.882890        1.016132       -0.103939
  H           -0.924881        0.997831       -0.099780
  H           -0.910028       -1.129127       -1.413513
  H            0.894287       -1.134110       -1.406828
  H            0.030211       -0.369186        3.177055
  O            3.684460       -3.789255       -1.501899
  H            3.706600       -3.012967       -2.116309
  H            3.506069       -3.395506       -0.610972
  O            3.249739       -2.030529       -0.266021
  H            3.739185       -2.802110       -0.647749
  H            3.830371       -1.250727       -0.454137
  O            3.820481       -0.676454       -0.280739
  H            4.156252       -1.522008        0.110293
  H            2.836281       -0.784525       -0.297607
  O            3.544774        1.740376        1.750516
  H            4.321745        1.175050        1.989961
  H            2.912140        1.624398        2.503468
  O            3.675936        1.979543        1.834253
  H            3.030316        1.232573        1.757956
  H            4.153446        1.984335        0.966742
  O            3.840922       -3.521801       -0.181135
  H            2.993198       -3.765164       -0.631414
  H            4.034204       -2.603033       -0.495969
  O            3.466614       -3.917519       -0.852597
  H            3.039873       -3.046818       -0.651640
  H            4.357953       -3.861560       -0.424818
  O            3.256535       -2.525257        2.110194
  H            3.912561       -2.458121        2.848932
  H            3.701970       -2.086640        1.342200
  O            3.468357       -1.545819        1.372096
  H            3.841381       -2.220516        0.750607
  H            3.608202       -1.933699        2.272432
  O            3.618717        1.292644       -3.091349
  H            3.768591        0.918714       -3.995962
  H            3.466690        2.259112       -3.244446
  O            3.701851       -0.492806       -0.111548
  H            2.838248       -0.730220        0.310868
  H            4.321385       -0.358112        0.649141
  O            3.217098       -0.765943       -1.013480
  H            3.846590       -0.602762       -1.760288
  H            3.796818       -1.015124       -0.250298
  O            3.399556        0.015698       -0.406088
  H            4.384135       -0.068001       -0.341212
  H            3.157023       -0.519718       -1.203033
  O            3.735087       -1.242333       -2.018904
  H            4.181856       -2.084048       -1.749599
  H            2.985790       -1.143451       -1.379069
  O            3.733058       -2.360781        3.253835
  H            4.058423       -1.863961        4.046248
  H            3.012328       -1.791866        2.883030
  O            3.983556        3.208310        0.486697
  H            3.402000        2.478777        0.154755
  H            3.537335        3.525296        1.311937
  O            3.562671        0.159396       -2.836707
  H            3.258475       -0.758433       -3.050402
  H            4.038012        0.459351       -3.651992
  O            3.784817       -0.404518       -2.897113
  H            2.829150       -0.219326       -2.715414
  H            4.271635        0.083432       -2.186109
  O            3.852046        0.061523        2.642527
  H            2.894123       -0.097072        2.447994
  H            4.120650       -0.705602        3.208198
  O            3.213300        0.333434       -2.896239
  H            3.906833        0.932352       -3.271633
  H            3.662190       -0.123071       -2.140783
  O            3.351864        0.916535       -2.762424
  H            3.583150        1.793627       -2.365148
  H            3.906531        0.264615       -2.264471
  O            0.287479        3.893276        2.821832
  H            0.980396        3.186056        2.804039
  H           -0.335685        3.612084        3.538220
  O            3.752218       -0.508643        0.748544
  H            3.840151        0.449314        0.513604
  H            3.165032       -0.515657        1.545900
  O            3.410888        1.573629        0.520203
  H            4.347805        1.267326        0.425458
  H            3.146376        1.849228       -0.393412
  O            3.336474        1.043564        0.372413
  H            4.286886        0.773847        0.304727
  H            3.212706        1.701448       -0.357302
  O            3.314471        1.035132       -1.726231
  H            3.456564        0.759536       -0.785770
  H            4.144119        1.516866       -1.971649
  O            3.494704        1.816274       -1.608743
  H            4.375380        1.366562       -1.556010
  H            2.946920        1.371306       -0.914086
  O            3.438120       -3.174224        0.587704
  H            4.402560       -2.960392        0.656574
  H            3.079399       -2.501653       -0.044420
  O            3.217821       -1.488639       -1.113890
  H            3.571782       -0.782786       -1.711464
  H            4.024087       -1.908545       -0.721173
  O            3.801825        0.541616        0.198921
  H            3.732211        1.415593        0.659280
  H            3.287425        0.660803       -0.638814
  O            3.705577        0.785004       -2.471580
  H            3.846718        0.923703       -3.441865
  H            3.296254        1.630095       -2.157112
  O            3.340653       -3.256686        1.564897
  H            3.849073       -4.104228        1.503325
  H            3.725799       -2.684169        0.854615
  O            3.627787        0.548416       -2.022343
  H            3.057364        0.755468       -1.239810
  H            4.144888       -0.250314       -1.748026
  O            3.411515        3.914727        3.290713
  H            2.916884        3.450445        2.569331
  H            4.200488        3.340661        3.459777
  O            3.535412       -0.925085        2.005642
  H            3.138402       -0.041478        1.800134
  H            4.264162       -0.726739        2.646106
  O            3.788779        0.336420        2.447006
  H            2.887533        0.587656        2.122586
  H            4.199551       -0.148544        1.687606
  O            3.475414        2.374193        2.224527
  H            3.392893        1.824033        1.405305
  H            4.068780        3.122342        1.962224
  O            3.676854        0.349199       -1.169650
  H            4.220326       -0.461449       -1.002024
  H            2.867924        0.014276       -1.632327
  O            3.240425       -2.252165       -0.009061
  H            4.035782       -1.744081        0.290720
  H            3.478740       -3.200628        0.146627
  O            3.489190       -2.906250        1.603567
  H            4.181705       -3.477497        2.021552
  H            3.105049       -2.390742        2.356760
  O            3.389479       -0.659054        2.903004
  H            4.375873       -0.741876        2.875094
  H            3.094805       -0.893548        1.987148
  O            3.817922        2.598549       -2.333981
  H            3.406773        1.918279       -2.924574
  H            3.538978        2.335605       -1.420929
  O            3.886326        0.171107        2.793294
  H            2.911075       -0.000611        2.790279
  H            4.140295        0.142651        3.750009
  O            4.009400        2.992935        2.754880
  H            3.305443        2.296488        2.759062
  H            3.516285        3.844786        2.863508
  O            3.605609       -0.511305       -3.022396
  H            3.581240       -0.923041       -3.922668
  H            3.743174       -1.273079       -2.404828
  O            3.796548       -2.037367       -1.976385
  H            4.166265       -1.120200       -1.924177
  H            2.907876       -1.923006       -2.398044
  O            1.687364        3.321691        3.907796
  H            1.603260        3.166257        2.933436
  H            2.107637        4.215341        3.981108
  O            3.580180       -2.816075        0.305147
  H            2.950881       -2.058167        0.204297
  H            4.294876       -2.468224        0.895758
  O            3.838553       -0.337902       -0.679893
  H            2.856520       -0.213759       -0.708346
  H            4.186330        0.516626       -0.320108
  O            3.435989        1.268122        2.461683
  H            3.220702        2.181304        2.144886
  H            4.210899        1.391345        3.065789
