         166
  Built with Packmol                                             
  N            0.002605        0.268339        2.349498
  C            0.005610       -0.534268        1.127824
  C           -0.013605        0.360442       -0.117570
  C           -0.006580       -0.484114       -1.399583
  C            0.005309        0.346063       -2.655593
  O            0.015980        1.566588       -2.611145
  O            0.010136       -0.270580       -3.851920
  H            0.843830        0.889238        2.373417
  H           -0.867625        0.846216        2.397033
  H           -0.885896       -1.198618        1.124039
  H            0.917756       -1.170846        1.111005
  H            0.882890        1.016132       -0.103939
  H           -0.924881        0.997831       -0.099780
  H           -0.910028       -1.129127       -1.413513
  H            0.894287       -1.134110       -1.406828
  H            0.030211       -0.369186        3.177055
  O            0.689587       -3.958138       -1.631891
  H            1.486484       -3.439720       -1.909037
  H           -0.061173       -3.541934       -2.125599
  O           -3.853735        0.337430       -3.196815
  H           -3.910075        1.129828       -2.605594
  H           -3.352670        0.654695       -3.989840
  O            2.763442        3.849965        3.821080
  H            2.443226        3.857543        2.884055
  H            3.750325        3.818319        3.745763
  O            0.522195       -2.594925       -3.966158
  H            0.779898       -2.065523       -3.169958
  H            0.964816       -3.471059       -3.835436
  O           -3.297836        3.237473        2.067811
  H           -3.860829        3.955203        2.453185
  H           -3.944797        2.596312        1.679266
  O            1.906702        3.282793       -3.973922
  H            2.714602        3.821424       -3.779540
  H            1.152601        3.848018       -3.669840
  O           -0.032125        2.484109        1.558238
  H            0.793666        2.836563        1.975918
  H           -0.748417        3.090208        1.874755
  O           -2.481799        0.568432       -1.277506
  H           -3.012392       -0.241549       -1.484901
  H           -1.854336        0.655603       -2.038626
  O            3.837090        3.123864       -1.443556
  H            3.821923        2.247237       -1.903887
  H            3.901340        3.787490       -2.175734
  O            2.807071        1.087543       -0.632061
  H            2.592573        2.011234       -0.346758
  H            2.318676        0.971814       -1.485694
  O           -3.838582       -2.351788       -3.205308
  H           -3.802509       -1.565165       -3.805753
  H           -3.856221       -3.130277       -3.817074
  O            3.865606        3.597339        1.478634
  H            3.875475        3.254179        0.549788
  H            3.894105        2.784624        2.043696
  O           -3.753036        0.319471        3.104117
  H           -3.838590       -0.325993        3.850219
  H           -4.036197       -0.188691        2.302741
  O           -3.915915        3.621354       -3.758758
  H           -2.998821        3.855828       -4.049568
  H           -3.977683        2.642836       -3.897688
  O           -2.745643       -3.922958        1.306844
  H           -3.562648       -4.064181        1.848295
  H           -2.016699       -3.847090        1.972801
  O            0.846601        2.214848        3.869188
  H           -0.119253        1.998419        3.839289
  H            0.877680        3.202613        3.932179
  O           -2.958637       -2.099208       -0.787409
  H           -3.919878       -1.935928       -0.960515
  H           -2.558313       -2.201261       -1.687374
  O            3.872844       -0.540021       -2.112863
  H            3.895924        0.353334       -2.539471
  H            4.066675       -0.363987       -1.157847
  O            2.644400        1.101284       -3.898001
  H            1.844834        1.380414       -3.384784
  H            3.284944        1.847957       -3.784880
  O            1.353117        3.515491        0.190248
  H            0.511022        4.000510        0.380627
  H            2.011976        3.906632        0.817565
  O           -1.806826       -1.628064       -3.835259
  H           -1.217554       -2.045548       -3.157708
  H           -2.016103       -0.733846       -3.464866
  O           -1.457486        2.100315       -3.852026
  H           -1.412810        1.114195       -3.930656
  H           -2.162358        2.263612       -3.175932
  O           -2.875408        1.835794        4.054806
  H           -2.236079        1.978402        3.312153
  H           -3.727936        2.216459        3.724803
  O            3.302404        0.884598        1.912340
  H            3.902489        0.339939        2.481424
  H            3.819700        1.038026        1.081992
  O           -3.835179       -0.409434        0.326810
  H           -3.908382        0.555302        0.115774
  H           -2.867422       -0.558291        0.474800
  O           -3.232084       -3.059882        3.646150
  H           -3.843446       -2.320217        3.890575
  H           -3.753515       -3.882362        3.825733
  O            3.927205       -3.258927        1.677382
  H            3.204530       -3.852951        2.002168
  H            3.767179       -2.397919        2.139625
  O            1.967600        3.776397       -1.692550
  H            1.027624        4.087913       -1.688947
  H            1.919512        2.846525       -2.029655
  O            2.807867       -0.651371        0.742955
  H            3.718387       -1.036259        0.684417
  H            2.413049       -0.811093       -0.151036
  O           -3.441511        2.888171       -1.780905
  H           -3.918954        2.395216       -1.067004
  H           -3.846147        3.791939       -1.771597
  O           -0.908114        3.041057       -0.789081
  H           -1.549443        2.473652       -1.286433
  H           -0.034161        2.591027       -0.908634
  O           -1.966504       -3.767300       -3.846071
  H           -0.985184       -3.899583       -3.857152
  H           -2.205335       -3.762284       -2.885057
  O            2.498459       -1.028288        3.752065
  H            3.483285       -1.131162        3.764119
  H            2.286924       -0.774539        2.818535
  O            0.370243       -3.816014        1.394911
  H            0.030627       -2.906447        1.589740
  H            1.209996       -3.884041        1.915296
  O           -0.663870       -3.315437       -0.238774
  H           -0.015029       -2.579796       -0.374598
  H           -1.428387       -2.889538        0.224624
  O            2.904342       -3.702013       -3.416633
  H            3.821661       -3.795313       -3.777786
  H            2.754875       -2.724279       -3.368592
  O           -2.156015        1.829252        1.231824
  H           -2.671086        1.067333        1.598966
  H           -2.575337        2.011953        0.353529
  O           -2.645316        3.925642       -0.183108
  H           -2.043258        3.915985        0.603050
  H           -3.556831        3.887339        0.201971
  O            3.819123       -2.709929       -1.676898
  H            3.579160       -3.660250       -1.535769
  H            2.994188       -2.209879       -1.453187
  O           -0.462381       -3.949597        3.213691
  H            0.309832       -4.049009        3.825586
  H           -1.241187       -3.832690        3.814030
  O            0.778136       -2.003440        4.039074
  H           -0.201859       -2.141514        4.005059
  H            1.106427       -2.339406        3.167315
  O           -1.268351        4.040875       -3.085388
  H           -1.954367        4.082048       -2.372438
  H           -0.555220        3.465072       -2.710543
  O            2.202175       -0.846652       -3.854423
  H            2.051530       -0.547695       -2.922468
  H            3.187359       -0.865418       -3.952775
  O            2.793284        1.870884        3.572897
  H            3.753700        1.821841        3.809132
  H            2.440212        0.969457        3.781183
  O           -3.558126       -2.078914        1.934141
  H           -3.827592       -2.278975        1.002490
  H           -2.579282       -1.937496        1.884364
  O           -3.516788       -3.968888       -1.154392
  H           -3.950124       -3.809808       -0.278307
  H           -2.552460       -4.047748       -0.943521
  O            2.889348       -3.037685        3.813590
  H            3.802320       -3.418875        3.855866
  H            2.292276       -3.826964        3.779601
  O           -1.874325        3.938471        3.282283
  H           -2.578053        3.830891        3.970616
  H           -1.026105        3.778121        3.767489
  O            2.611291       -3.301686        0.175083
  H            2.285644       -2.579283        0.768967
  H            1.814987       -3.867637        0.013181
  O           -1.955255       -0.605568        3.237102
  H           -1.891713        0.100506        3.928501
  H           -2.054987       -1.446769        3.749983
