 xtb: 6.7.1 (edcfbbe)
          06092518043D

 37 29  0     0  0            999 V2000
    0.3967   -1.2704    1.9480 N   0  0  0  0  0  0  0  0  0  0  0  0
   -0.2407   -0.4345    0.9201 C   0  0  0  0  0  0  0  0  0  0  0  0
    0.8112    0.2291    0.0342 C   0  0  0  0  0  0  0  0  0  0  0  0
    0.2146    0.6828   -1.2935 C   0  0  0  0  0  0  0  0  0  0  0  0
   -0.0829   -0.4713   -2.2872 C   0  0  0  0  0  0  0  0  0  0  0  0
    0.2911   -1.6300   -1.9914 O   0  0  0  0  0  0  0  0  0  0  0  0
   -0.6720   -0.1564   -3.3414 O   0  0  0  0  0  0  0  0  0  0  0  0
    0.9491   -2.0053    1.4742 H   0  0  0  0  0  0  0  0  0  0  0  0
    1.0102   -0.7204    2.5823 H   0  0  0  0  0  0  0  0  0  0  0  0
   -0.8664    0.3219    1.3930 H   0  0  0  0  0  0  0  0  0  0  0  0
   -0.8721   -1.0649    0.2930 H   0  0  0  0  0  0  0  0  0  0  0  0
    1.6000   -0.4894   -0.1940 H   0  0  0  0  0  0  0  0  0  0  0  0
    1.2528    1.0876    0.5399 H   0  0  0  0  0  0  0  0  0  0  0  0
   -0.7209    1.2288   -1.1554 H   0  0  0  0  0  0  0  0  0  0  0  0
    0.9005    1.3481   -1.8242 H   0  0  0  0  0  0  0  0  0  0  0  0
   -0.3128   -1.7564    2.5163 H   0  0  0  0  0  0  0  0  0  0  0  0
   -1.0683   -3.6954    2.0523 O   0  0  0  0  0  0  0  0  0  0  0  0
   -0.4869   -3.9643    2.7875 H   0  0  0  0  0  0  0  0  0  0  0  0
   -0.5237   -3.7677    1.2546 H   0  0  0  0  0  0  0  0  0  0  0  0
   -0.4336   -1.3576    4.7421 O   0  0  0  0  0  0  0  0  0  0  0  0
   -1.0891   -0.9467    5.3082 H   0  0  0  0  0  0  0  0  0  0  0  0
    0.3425   -0.7757    4.7099 H   0  0  0  0  0  0  0  0  0  0  0  0
    2.0089   -0.1939    3.9445 O   0  0  0  0  0  0  0  0  0  0  0  0
    2.6745    0.4960    3.9687 H   0  0  0  0  0  0  0  0  0  0  0  0
    2.4820   -1.0514    3.8815 H   0  0  0  0  0  0  0  0  0  0  0  0
    1.0010   -3.2761    0.0873 O   0  0  0  0  0  0  0  0  0  0  0  0
    1.6621   -3.8776   -0.2636 H   0  0  0  0  0  0  0  0  0  0  0  0
    0.7133   -2.7257   -0.6655 H   0  0  0  0  0  0  0  0  0  0  0  0
    2.9273   -2.7016    3.5397 O   0  0  0  0  0  0  0  0  0  0  0  0
    3.6733   -3.2153    3.8552 H   0  0  0  0  0  0  0  0  0  0  0  0
    2.1203   -3.2069    3.7614 H   0  0  0  0  0  0  0  0  0  0  0  0
   -3.8492   -3.9663    2.3684 O   0  0  0  0  0  0  0  0  0  0  0  0
   -2.8784   -3.9262    2.2867 H   0  0  0  0  0  0  0  0  0  0  0  0
   -4.1932   -3.6310    1.5364 H   0  0  0  0  0  0  0  0  0  0  0  0
    0.5430   -3.8570    4.3130 O   0  0  0  0  0  0  0  0  0  0  0  0
    0.1435   -2.9975    4.5658 H   0  0  0  0  0  0  0  0  0  0  0  0
    0.3698   -4.4649    5.0355 H   0  0  0  0  0  0  0  0  0  0  0  0
  1  2  1  0  0  0  0
  2  3  1  0  0  0  0
  3  4  1  0  0  0  0
  4  5  1  0  0  0  0
  5  6  4  0  0  0  0
  5  7  4  0  0  0  0
  1  8  1  0  0  0  0
  1  9  1  0  0  0  0
  2 10  1  0  0  0  0
  2 11  1  0  0  0  0
  3 12  1  0  0  0  0
  3 13  1  0  0  0  0
  4 14  1  0  0  0  0
  4 15  1  0  0  0  0
  1 16  1  0  0  0  0
 17 18  1  0  0  0  0
 17 19  1  0  0  0  0
 20 21  1  0  0  0  0
 20 22  1  0  0  0  0
 23 24  1  0  0  0  0
 23 25  1  0  0  0  0
 26 27  1  0  0  0  0
 26 28  1  0  0  0  0
 29 30  1  0  0  0  0
 29 31  1  0  0  0  0
 32 33  1  0  0  0  0
 32 34  1  0  0  0  0
 35 36  1  0  0  0  0
 35 37  1  0  0  0  0
M  END
