 xtb: 6.7.1 (edcfbbe)
          06092518053D

 37 29  0     0  0            999 V2000
   -0.2891   -1.4393    0.8798 N   0  0  0  0  0  0  0  0  0  0  0  0
    0.3224   -0.3478    0.1049 C   0  0  0  0  0  0  0  0  0  0  0  0
    0.2828    0.9638    0.8855 C   0  0  0  0  0  0  0  0  0  0  0  0
   -1.0784    1.2519    1.5363 C   0  0  0  0  0  0  0  0  0  0  0  0
   -2.2899    0.9991    0.6054 C   0  0  0  0  0  0  0  0  0  0  0  0
   -2.8279    1.9806    0.0586 O   0  0  0  0  0  0  0  0  0  0  0  0
   -2.6651   -0.1957    0.4807 O   0  0  0  0  0  0  0  0  0  0  0  0
   -0.0731   -2.3630    0.4644 H   0  0  0  0  0  0  0  0  0  0  0  0
    0.0610   -1.4562    1.8729 H   0  0  0  0  0  0  0  0  0  0  0  0
    1.3530   -0.6051   -0.1421 H   0  0  0  0  0  0  0  0  0  0  0  0
   -0.2404   -0.2272   -0.8229 H   0  0  0  0  0  0  0  0  0  0  0  0
    0.5288    1.7780    0.2024 H   0  0  0  0  0  0  0  0  0  0  0  0
    1.0320    0.9451    1.6782 H   0  0  0  0  0  0  0  0  0  0  0  0
   -1.2119    0.6261    2.4205 H   0  0  0  0  0  0  0  0  0  0  0  0
   -1.1199    2.2985    1.8432 H   0  0  0  0  0  0  0  0  0  0  0  0
   -1.3149   -1.2517    0.8759 H   0  0  0  0  0  0  0  0  0  0  0  0
   -1.4411   -3.6164    4.2793 O   0  0  0  0  0  0  0  0  0  0  0  0
   -1.5462   -3.9807    5.1646 H   0  0  0  0  0  0  0  0  0  0  0  0
   -2.3183   -3.5445    3.8937 H   0  0  0  0  0  0  0  0  0  0  0  0
    4.6115   -2.6686    1.4023 O   0  0  0  0  0  0  0  0  0  0  0  0
    4.9191   -1.8285    1.7583 H   0  0  0  0  0  0  0  0  0  0  0  0
    5.3878   -3.1612    1.1195 H   0  0  0  0  0  0  0  0  0  0  0  0
    2.8039   -2.3009   -0.7686 O   0  0  0  0  0  0  0  0  0  0  0  0
    3.4447   -2.4160   -0.0478 H   0  0  0  0  0  0  0  0  0  0  0  0
    2.0928   -2.9377   -0.5782 H   0  0  0  0  0  0  0  0  0  0  0  0
    0.7784   -3.9286    0.2631 O   0  0  0  0  0  0  0  0  0  0  0  0
    0.3614   -4.7790    0.1032 H   0  0  0  0  0  0  0  0  0  0  0  0
    1.2508   -3.9904    1.1191 H   0  0  0  0  0  0  0  0  0  0  0  0
    2.3360   -3.8314    2.5376 O   0  0  0  0  0  0  0  0  0  0  0  0
    2.6226   -4.5677    3.0851 H   0  0  0  0  0  0  0  0  0  0  0  0
    3.1399   -3.4268    2.1666 H   0  0  0  0  0  0  0  0  0  0  0  0
    0.5785   -1.8482    3.4195 O   0  0  0  0  0  0  0  0  0  0  0  0
    1.2753   -2.4950    3.1979 H   0  0  0  0  0  0  0  0  0  0  0  0
   -0.1391   -2.3796    3.8006 H   0  0  0  0  0  0  0  0  0  0  0  0
    3.8753   -2.6700   -3.2907 O   0  0  0  0  0  0  0  0  0  0  0  0
    3.5213   -2.5180   -2.3902 H   0  0  0  0  0  0  0  0  0  0  0  0
    3.2914   -2.1873   -3.8812 H   0  0  0  0  0  0  0  0  0  0  0  0
  1  2  1  0  0  0  0
  2  3  1  0  0  0  0
  3  4  1  0  0  0  0
  4  5  1  0  0  0  0
  5  6  2  0  0  0  0
  5  7  4  0  0  0  0
  1  8  1  0  0  0  0
  1  9  1  0  0  0  0
  2 10  1  0  0  0  0
  2 11  1  0  0  0  0
  3 12  1  0  0  0  0
  3 13  1  0  0  0  0
  4 14  1  0  0  0  0
  4 15  1  0  0  0  0
  1 16  1  0  0  0  0
 17 18  1  0  0  0  0
 17 19  1  0  0  0  0
 20 21  1  0  0  0  0
 20 22  1  0  0  0  0
 23 24  1  0  0  0  0
 23 25  1  0  0  0  0
 26 27  1  0  0  0  0
 26 28  1  0  0  0  0
 29 30  1  0  0  0  0
 29 31  1  0  0  0  0
 32 33  1  0  0  0  0
 32 34  1  0  0  0  0
 35 36  1  0  0  0  0
 35 37  1  0  0  0  0
M  END
