          34
  Built with Packmol                                             
  C            0.000717       -0.522558        0.678044
  C            0.000155        0.093927        2.050368
  O           -0.000195       -0.630131        3.032262
  O           -0.000797        1.431559        2.216433
  C            0.000989        0.525311       -0.443260
  N           -0.000301       -0.116591       -1.756652
  H            0.902593       -1.162928        0.578888
  H           -0.902640       -1.160238        0.579017
  H           -0.902002        1.167413       -0.351037
  H            0.903666        1.168949       -0.351720
  H           -0.857069       -0.705532       -1.867523
  H            0.853228       -0.710069       -1.867795
  H            0.001656        0.620887       -2.497026
  O           -2.472886       -0.819481       -6.158090
  H           -2.826067       -1.515443       -5.548573
  H           -1.527685       -0.706998       -5.885041
  O           -2.541369        2.143381        1.651576
  H           -3.237707        1.447516        1.758791
  H           -2.556056        2.642862        2.506513
  O           -3.113951       -0.546420       -3.547318
  H           -2.133846       -0.629606       -3.661707
  H           -3.258608        0.409788       -3.334357
  O           -1.540956       -3.227406       -4.966686
  H           -1.129890       -2.453484       -4.505514
  H           -0.780052       -3.827397       -5.170768
  O           -2.782006       -2.287077        0.493993
  H           -2.778817       -3.238080        0.770025
  H           -3.353855       -1.835931        1.164865
  O           -2.803928        2.123240       -2.030711
  H           -2.099549        2.817455       -1.980435
  H           -3.159237        2.063054       -1.108352
  O           -2.643548       -0.079630        4.230830
  H           -2.778670        0.803041        4.658901
  H           -1.729946       -0.349329        4.501396
