          34
  Built with Packmol                                             
  C            0.000717       -0.522558        0.678044
  C            0.000155        0.093927        2.050368
  O           -0.000195       -0.630131        3.032262
  O           -0.000797        1.431559        2.216433
  C            0.000989        0.525311       -0.443260
  N           -0.000301       -0.116591       -1.756652
  H            0.902593       -1.162928        0.578888
  H           -0.902640       -1.160238        0.579017
  H           -0.902002        1.167413       -0.351037
  H            0.903666        1.168949       -0.351720
  H           -0.857069       -0.705532       -1.867523
  H            0.853228       -0.710069       -1.867795
  H            0.001656        0.620887       -2.497026
  O            1.891693       -3.190177       -4.779925
  H            1.698600       -3.771726       -4.002026
  H            1.059473       -2.670465       -4.913798
  O           -2.250243       -3.220694        1.618885
  H           -2.931911       -3.587329        1.001213
  H           -2.774435       -2.764064        2.324097
  O            1.034088       -3.464939        2.193601
  H            0.675071       -4.365398        2.395815
  H            1.900571       -3.430194        2.671735
  O           -2.227833       -3.068098       -4.123621
  H           -1.788099       -3.910100       -3.843841
  H           -1.851589       -2.379214       -3.519888
  O           -1.456434       -3.192591        4.058948
  H           -1.432773       -2.803110        4.969089
  H           -1.116164       -4.115281        4.175015
  O            0.889881       -4.324324       -1.474695
  H            1.335922       -3.440467       -1.496025
  H            0.395925       -4.373692       -2.331540
  O           -1.160602       -3.815567       -0.894251
  H           -1.644626       -4.607573       -0.549202
  H           -0.841275       -3.346861       -0.082488
