          37
  Built with Packmol                                             
  N            0.064952       -0.170366        2.240690
  C           -0.425087       -0.283877        0.868279
  C            0.367730        0.641149       -0.071166
  C           -0.134429        0.597594       -1.523145
  C            0.096668       -0.713488       -2.230733
  O            0.727246       -1.739965       -1.628533
  O           -0.270635       -0.838959       -3.387000
  H            1.072330       -0.447205        2.286531
  H           -0.048728        0.810713        2.583748
  H           -1.501047       -0.002735        0.840683
  H           -0.338388       -1.340879        0.545678
  H            1.449826        0.389794       -0.041707
  H            0.245710        1.683089        0.295720
  H           -1.217927        0.840241       -1.535888
  H            0.400055        1.383318       -2.098747
  H           -0.488277       -0.808425        2.855591
  O           -2.848380       -2.690857       -5.207173
  H           -2.494719       -2.175290       -5.975109
  H           -3.343147       -2.024113       -4.667477
  O            2.118824       -3.008233       -3.210349
  H            1.884180       -3.968174       -3.146579
  H            2.302313       -2.861051       -4.172265
  O           -0.406846        3.286440        6.577660
  H           -0.237857        2.324636        6.741940
  H           -1.083193        3.299522        5.854475
  O           -0.678179       -3.085104       -5.135203
  H            0.309656       -3.037031       -5.085381
  H           -0.945487       -3.559883       -4.308315
  O           -0.909481        3.173179        3.070924
  H            0.026348        3.486490        3.152607
  H           -1.014141        2.511508        3.800205
  O           -0.544765       -2.774012        4.881965
  H            0.074254       -3.182476        5.538154
  H           -0.771771       -3.512222        4.262185
  O           -2.301526       -2.934859       -2.334268
  H           -2.956169       -2.362005       -1.861097
  H           -2.830512       -3.385549       -3.039722
