 xtb: 6.7.1 (edcfbbe)
          06092518043D

 37 29  0     0  0            999 V2000
    0.3725   -0.5900    1.5324 N   0  0  0  0  0  0  0  0  0  0  0  0
   -0.4083    0.0382    0.4533 C   0  0  0  0  0  0  0  0  0  0  0  0
    0.4363    1.0924   -0.2611 C   0  0  0  0  0  0  0  0  0  0  0  0
   -0.0952    1.3796   -1.6603 C   0  0  0  0  0  0  0  0  0  0  0  0
    0.0788    0.2054   -2.6439 C   0  0  0  0  0  0  0  0  0  0  0  0
    0.8786   -0.7143   -2.3748 O   0  0  0  0  0  0  0  0  0  0  0  0
   -0.6112    0.2516   -3.6932 O   0  0  0  0  0  0  0  0  0  0  0  0
    1.1815   -1.0719    1.0924 H   0  0  0  0  0  0  0  0  0  0  0  0
    0.7213    0.1452    2.1866 H   0  0  0  0  0  0  0  0  0  0  0  0
   -1.3086    0.4928    0.8654 H   0  0  0  0  0  0  0  0  0  0  0  0
   -0.7028   -0.7251   -0.2685 H   0  0  0  0  0  0  0  0  0  0  0  0
    1.4583    0.7258   -0.3642 H   0  0  0  0  0  0  0  0  0  0  0  0
    0.4600    2.0146    0.3191 H   0  0  0  0  0  0  0  0  0  0  0  0
   -1.1576    1.6316   -1.6511 H   0  0  0  0  0  0  0  0  0  0  0  0
    0.4357    2.2230   -2.1098 H   0  0  0  0  0  0  0  0  0  0  0  0
   -0.1944   -1.2849    2.0554 H   0  0  0  0  0  0  0  0  0  0  0  0
   -3.1998   -3.2458   -4.0286 O   0  0  0  0  0  0  0  0  0  0  0  0
   -2.3177   -2.9191   -4.2953 H   0  0  0  0  0  0  0  0  0  0  0  0
   -3.8332   -2.7000   -4.5045 H   0  0  0  0  0  0  0  0  0  0  0  0
    2.2040   -1.7779   -0.1844 O   0  0  0  0  0  0  0  0  0  0  0  0
    1.8084   -1.4099   -0.9970 H   0  0  0  0  0  0  0  0  0  0  0  0
    2.3121   -2.7202   -0.3414 H   0  0  0  0  0  0  0  0  0  0  0  0
   -0.5350    1.8646    5.3092 O   0  0  0  0  0  0  0  0  0  0  0  0
   -0.8733    1.1006    5.7875 H   0  0  0  0  0  0  0  0  0  0  0  0
   -1.2651    2.4812    5.2012 H   0  0  0  0  0  0  0  0  0  0  0  0
   -0.7514   -2.2056   -4.7647 O   0  0  0  0  0  0  0  0  0  0  0  0
   -0.7052   -1.2728   -4.4384 H   0  0  0  0  0  0  0  0  0  0  0  0
    0.0497   -2.6263   -4.4358 H   0  0  0  0  0  0  0  0  0  0  0  0
    1.2247    1.4477    3.1767 O   0  0  0  0  0  0  0  0  0  0  0  0
    2.1193    1.4637    3.5271 H   0  0  0  0  0  0  0  0  0  0  0  0
    0.6278    1.6387    3.9214 H   0  0  0  0  0  0  0  0  0  0  0  0
   -1.0860   -2.5707    2.8697 O   0  0  0  0  0  0  0  0  0  0  0  0
   -0.5661   -3.2706    3.2768 H   0  0  0  0  0  0  0  0  0  0  0  0
   -1.8124   -2.9880    2.3986 H   0  0  0  0  0  0  0  0  0  0  0  0
   -3.7698   -4.0541   -1.3883 O   0  0  0  0  0  0  0  0  0  0  0  0
   -4.3381   -4.8080   -1.5735 H   0  0  0  0  0  0  0  0  0  0  0  0
   -3.4886   -3.7207   -2.2573 H   0  0  0  0  0  0  0  0  0  0  0  0
  1  2  1  0  0  0  0
  2  3  1  0  0  0  0
  3  4  1  0  0  0  0
  4  5  1  0  0  0  0
  5  6  4  0  0  0  0
  5  7  4  0  0  0  0
  1  8  1  0  0  0  0
  1  9  1  0  0  0  0
  2 10  1  0  0  0  0
  2 11  1  0  0  0  0
  3 12  1  0  0  0  0
  3 13  1  0  0  0  0
  4 14  1  0  0  0  0
  4 15  1  0  0  0  0
  1 16  1  0  0  0  0
 17 18  1  0  0  0  0
 17 19  1  0  0  0  0
 20 21  1  0  0  0  0
 20 22  1  0  0  0  0
 23 24  1  0  0  0  0
 23 25  1  0  0  0  0
 26 27  1  0  0  0  0
 26 28  1  0  0  0  0
 29 30  1  0  0  0  0
 29 31  1  0  0  0  0
 32 33  1  0  0  0  0
 32 34  1  0  0  0  0
 35 36  1  0  0  0  0
 35 37  1  0  0  0  0
M  END
