 xtb: 6.7.1 (edcfbbe)
          06092518013D

 37 29  0     0  0            999 V2000
    0.0806    0.2641    2.3972 N   0  0  0  0  0  0  0  0  0  0  0  0
    0.0145   -0.4269    1.0957 C   0  0  0  0  0  0  0  0  0  0  0  0
   -0.0354    0.5991   -0.0290 C   0  0  0  0  0  0  0  0  0  0  0  0
    0.0582   -0.0438   -1.4066 C   0  0  0  0  0  0  0  0  0  0  0  0
    0.3544    0.9598   -2.5365 C   0  0  0  0  0  0  0  0  0  0  0  0
    0.6114    2.1525   -2.2400 O   0  0  0  0  0  0  0  0  0  0  0  0
    0.3410    0.5133   -3.7038 O   0  0  0  0  0  0  0  0  0  0  0  0
    0.8382    0.9914    2.3753 H   0  0  0  0  0  0  0  0  0  0  0  0
   -0.8162    0.7593    2.6034 H   0  0  0  0  0  0  0  0  0  0  0  0
   -0.8666   -1.0678    1.0606 H   0  0  0  0  0  0  0  0  0  0  0  0
    0.9044   -1.0457    0.9712 H   0  0  0  0  0  0  0  0  0  0  0  0
    0.8093    1.2777    0.0745 H   0  0  0  0  0  0  0  0  0  0  0  0
   -0.9473    1.1943    0.0275 H   0  0  0  0  0  0  0  0  0  0  0  0
   -0.8588   -0.5670   -1.6840 H   0  0  0  0  0  0  0  0  0  0  0  0
    0.8735   -0.7718   -1.4461 H   0  0  0  0  0  0  0  0  0  0  0  0
    0.2673   -0.3967    3.1515 H   0  0  0  0  0  0  0  0  0  0  0  0
    0.1638    1.5593    7.3035 O   0  0  0  0  0  0  0  0  0  0  0  0
    0.2836    0.6979    7.7145 H   0  0  0  0  0  0  0  0  0  0  0  0
    1.0366    1.8841    7.0592 H   0  0  0  0  0  0  0  0  0  0  0  0
   -2.1483    2.2242    5.8400 O   0  0  0  0  0  0  0  0  0  0  0  0
   -2.3860    3.1051    6.1416 H   0  0  0  0  0  0  0  0  0  0  0  0
   -1.3657    1.9643    6.3562 H   0  0  0  0  0  0  0  0  0  0  0  0
    2.5192    2.9370   -0.4060 O   0  0  0  0  0  0  0  0  0  0  0  0
    3.2836    3.2764   -0.8789 H   0  0  0  0  0  0  0  0  0  0  0  0
    1.8566    2.7107   -1.0851 H   0  0  0  0  0  0  0  0  0  0  0  0
   -1.4647    3.5285   -0.9760 O   0  0  0  0  0  0  0  0  0  0  0  0
   -0.7511    3.1007   -1.4791 H   0  0  0  0  0  0  0  0  0  0  0  0
   -1.1682    4.4300   -0.8147 H   0  0  0  0  0  0  0  0  0  0  0  0
   -2.2293    1.5275    3.1625 O   0  0  0  0  0  0  0  0  0  0  0  0
   -2.2061    1.7695    4.1075 H   0  0  0  0  0  0  0  0  0  0  0  0
   -3.1532    1.4354    2.9225 H   0  0  0  0  0  0  0  0  0  0  0  0
    1.5815    1.6657   -5.8645 O   0  0  0  0  0  0  0  0  0  0  0  0
    1.2070    1.1574   -6.5911 H   0  0  0  0  0  0  0  0  0  0  0  0
    1.1443    1.3201   -5.0585 H   0  0  0  0  0  0  0  0  0  0  0  0
    1.9887    2.2552    2.2849 O   0  0  0  0  0  0  0  0  0  0  0  0
    1.6644    3.0910    2.6350 H   0  0  0  0  0  0  0  0  0  0  0  0
    2.2740    2.4407    1.3764 H   0  0  0  0  0  0  0  0  0  0  0  0
  1  2  1  0  0  0  0
  2  3  1  0  0  0  0
  3  4  1  0  0  0  0
  4  5  1  0  0  0  0
  5  6  4  0  0  0  0
  5  7  4  0  0  0  0
  1  8  1  0  0  0  0
  1  9  1  0  0  0  0
  2 10  1  0  0  0  0
  2 11  1  0  0  0  0
  3 12  1  0  0  0  0
  3 13  1  0  0  0  0
  4 14  1  0  0  0  0
  4 15  1  0  0  0  0
  1 16  1  0  0  0  0
 17 18  1  0  0  0  0
 17 19  1  0  0  0  0
 20 21  1  0  0  0  0
 20 22  1  0  0  0  0
 23 24  1  0  0  0  0
 23 25  1  0  0  0  0
 26 27  1  0  0  0  0
 26 28  1  0  0  0  0
 29 30  1  0  0  0  0
 29 31  1  0  0  0  0
 32 33  1  0  0  0  0
 32 34  1  0  0  0  0
 35 36  1  0  0  0  0
 35 37  1  0  0  0  0
M  END
