          34
  Built with Packmol                                             
  H            1.511317       -0.306828       -0.555014
  C            0.423564       -0.532721       -0.609717
  H            0.153518        0.482840       -2.377127
  H            0.306225       -1.519929       -1.108019
  N           -0.266872        0.473091       -1.420552
  H            0.312435       -1.513062        1.312585
  C           -0.165166       -0.646649        0.806799
  O            0.750464        1.631323        1.241066
  C            0.056943        0.562514        1.678499
  H           -0.170369        1.427689       -1.011410
  O           -0.378051        0.562370        2.818531
  H           -1.279945        0.228297       -1.503809
  H           -1.254063       -0.848936        0.728169
  O           -2.300015        1.222022        4.400173
  H           -2.027605        1.115985        5.346302
  H           -2.046312        2.151548        4.171632
  O           -1.581885       -3.256620        3.268620
  H           -0.600766       -3.232148        3.136646
  H           -1.942115       -2.663500        2.562181
  O           -0.260024        3.368938        4.039861
  H            0.543883        3.833805        3.695996
  H           -0.966038        4.063309        4.042488
  O           -1.793618       -1.623392        4.759193
  H           -1.924985       -2.446835        5.293324
  H           -2.492236       -1.001990        5.085391
  O            1.330000        4.728008       -1.680332
  H            0.353007        4.885002       -1.718368
  H            1.500750        4.054700       -2.386104
  O           -1.054293       -4.617650        0.409257
  H           -1.712504       -4.241903        1.046582
  H           -1.423952       -4.403685       -0.484154
  O           -1.202949        3.409779       -2.175689
  H           -1.932733        2.747361       -2.271759
  H           -0.437198        3.006884       -2.657263
