          37
  Built with Packmol                                             
  N            0.002605        0.268339        2.349498
  C            0.005610       -0.534268        1.127824
  C           -0.013605        0.360442       -0.117570
  C           -0.006580       -0.484114       -1.399583
  C            0.005309        0.346063       -2.655593
  O            0.015980        1.566588       -2.611145
  O            0.010136       -0.270580       -3.851920
  H            0.843830        0.889238        2.373417
  H           -0.867625        0.846216        2.397033
  H           -0.885896       -1.198618        1.124039
  H            0.917756       -1.170846        1.111005
  H            0.882890        1.016132       -0.103939
  H           -0.924881        0.997831       -0.099780
  H           -0.910028       -1.129127       -1.413513
  H            0.894287       -1.134110       -1.406828
  H            0.030211       -0.369186        3.177055
  O           -1.343935        0.137894        7.485666
  H           -1.480431        1.098929        7.681604
  H           -1.493329        0.059985        6.509846
  O            0.712502        0.934915       -7.534558
  H            1.160112        0.617256       -8.358785
  H            1.416750        1.429524       -7.044652
  O           -1.392957        1.595692        4.395086
  H           -1.527653        2.423488        3.868568
  H           -2.105916        1.619742        5.081907
  O            0.979805        3.441327       -3.275284
  H            1.501474        2.737312       -3.736625
  H            1.237777        3.357364       -2.322911
  O           -2.455517        2.716378        1.529572
  H           -2.742831        1.956752        2.096167
  H           -2.496068        2.365191        0.604566
  O            1.449974       -2.652120       -4.443127
  H            0.483621       -2.466426       -4.332264
  H            1.888748       -2.112738       -3.738033
  O            0.884122       -1.827551       -6.403191
  H            0.059502       -2.369355       -6.487226
  H            0.871375       -1.232002       -7.194248
