 xtb: 6.7.1 (edcfbbe)
          06092518083D

 37 29  0     0  0            999 V2000
   -0.1062   -1.5932    1.3189 N   0  0  0  0  0  0  0  0  0  0  0  0
    0.5210   -0.2615    1.3634 C   0  0  0  0  0  0  0  0  0  0  0  0
    0.0610    0.5745    0.1718 C   0  0  0  0  0  0  0  0  0  0  0  0
    0.3545   -0.0880   -1.1734 C   0  0  0  0  0  0  0  0  0  0  0  0
   -0.6792   -1.1384   -1.6310 C   0  0  0  0  0  0  0  0  0  0  0  0
   -0.4320   -1.7086   -2.7229 O   0  0  0  0  0  0  0  0  0  0  0  0
   -1.6752   -1.3755   -0.9152 O   0  0  0  0  0  0  0  0  0  0  0  0
   -0.3101   -2.0140    2.2394 H   0  0  0  0  0  0  0  0  0  0  0  0
   -0.9866   -1.5256    0.7768 H   0  0  0  0  0  0  0  0  0  0  0  0
    0.2314    0.2495    2.2816 H   0  0  0  0  0  0  0  0  0  0  0  0
    1.6057   -0.3688    1.3471 H   0  0  0  0  0  0  0  0  0  0  0  0
    0.5596    1.5430    0.2072 H   0  0  0  0  0  0  0  0  0  0  0  0
   -1.0155    0.7477    0.2406 H   0  0  0  0  0  0  0  0  0  0  0  0
    1.3339   -0.5693   -1.1767 H   0  0  0  0  0  0  0  0  0  0  0  0
    0.3694    0.6592   -1.9710 H   0  0  0  0  0  0  0  0  0  0  0  0
    0.4695   -2.2880    0.7887 H   0  0  0  0  0  0  0  0  0  0  0  0
   -0.7387   -5.2768   -0.7239 O   0  0  0  0  0  0  0  0  0  0  0  0
    0.0069   -4.6748   -0.5011 H   0  0  0  0  0  0  0  0  0  0  0  0
   -0.4314   -6.1710   -0.5467 H   0  0  0  0  0  0  0  0  0  0  0  0
   -2.3945   -3.6448    0.7492 O   0  0  0  0  0  0  0  0  0  0  0  0
   -2.4461   -2.8972    0.1369 H   0  0  0  0  0  0  0  0  0  0  0  0
   -1.9449   -4.3428    0.2380 H   0  0  0  0  0  0  0  0  0  0  0  0
    1.2457   -3.5504   -0.0466 O   0  0  0  0  0  0  0  0  0  0  0  0
    1.8254   -3.8826    0.6577 H   0  0  0  0  0  0  0  0  0  0  0  0
    1.7734   -3.3150   -0.8298 H   0  0  0  0  0  0  0  0  0  0  0  0
   -1.1959   -4.3215   -3.3506 O   0  0  0  0  0  0  0  0  0  0  0  0
   -1.1299   -4.7298   -2.4680 H   0  0  0  0  0  0  0  0  0  0  0  0
   -1.0450   -3.3707   -3.1967 H   0  0  0  0  0  0  0  0  0  0  0  0
   -0.9969   -3.4817    3.1025 O   0  0  0  0  0  0  0  0  0  0  0  0
   -1.5579   -3.6086    3.8714 H   0  0  0  0  0  0  0  0  0  0  0  0
   -1.5610   -3.6367    2.3155 H   0  0  0  0  0  0  0  0  0  0  0  0
    1.7267   -4.1472    2.6068 O   0  0  0  0  0  0  0  0  0  0  0  0
    2.2002   -4.0186    3.4320 H   0  0  0  0  0  0  0  0  0  0  0  0
    0.7808   -4.0511    2.8121 H   0  0  0  0  0  0  0  0  0  0  0  0
    2.1211   -2.6901   -2.4995 O   0  0  0  0  0  0  0  0  0  0  0  0
    2.3587   -3.2480   -3.2457 H   0  0  0  0  0  0  0  0  0  0  0  0
    1.2326   -2.3354   -2.7058 H   0  0  0  0  0  0  0  0  0  0  0  0
  1  2  1  0  0  0  0
  2  3  1  0  0  0  0
  3  4  1  0  0  0  0
  4  5  1  0  0  0  0
  5  6  4  0  0  0  0
  5  7  4  0  0  0  0
  1  8  1  0  0  0  0
  1  9  1  0  0  0  0
  2 10  1  0  0  0  0
  2 11  1  0  0  0  0
  3 12  1  0  0  0  0
  3 13  1  0  0  0  0
  4 14  1  0  0  0  0
  4 15  1  0  0  0  0
  1 16  1  0  0  0  0
 17 18  1  0  0  0  0
 17 19  1  0  0  0  0
 20 21  1  0  0  0  0
 20 22  1  0  0  0  0
 23 24  1  0  0  0  0
 23 25  1  0  0  0  0
 26 27  1  0  0  0  0
 26 28  1  0  0  0  0
 29 30  1  0  0  0  0
 29 31  1  0  0  0  0
 32 33  1  0  0  0  0
 32 34  1  0  0  0  0
 35 36  1  0  0  0  0
 35 37  1  0  0  0  0
M  END
