 xtb: 6.7.1 (edcfbbe)
          06092518003D

 34 26  0     0  0            999 V2000
    1.0903   -1.2134   -0.9403 H   0  0  0  0  0  0  0  0  0  0  0  0
    0.0228   -1.0252   -0.8197 C   0  0  0  0  0  0  0  0  0  0  0  0
    0.0911    0.0161   -2.6452 H   0  0  0  0  0  0  0  0  0  0  0  0
   -0.5301   -1.9361   -1.0527 H   0  0  0  0  0  0  0  0  0  0  0  0
   -0.3819    0.0608   -1.7326 N   0  0  0  0  0  0  0  0  0  0  0  0
    0.0580   -1.3853    1.3202 H   0  0  0  0  0  0  0  0  0  0  0  0
   -0.2623   -0.6139    0.6221 C   0  0  0  0  0  0  0  0  0  0  0  0
    0.4301    1.6492    0.2061 O   0  0  0  0  0  0  0  0  0  0  0  0
    0.4364    0.7066    1.0411 C   0  0  0  0  0  0  0  0  0  0  0  0
   -0.1208    0.9446   -1.2266 H   0  0  0  0  0  0  0  0  0  0  0  0
    0.9282    0.7612    2.1825 O   0  0  0  0  0  0  0  0  0  0  0  0
   -1.3983    0.0403   -1.9348 H   0  0  0  0  0  0  0  0  0  0  0  0
   -1.3322   -0.4474    0.7633 H   0  0  0  0  0  0  0  0  0  0  0  0
   -2.3529   -2.9719   -3.1901 O   0  0  0  0  0  0  0  0  0  0  0  0
   -1.4580   -3.0042   -3.5910 H   0  0  0  0  0  0  0  0  0  0  0  0
   -2.2458   -3.3197   -2.2887 H   0  0  0  0  0  0  0  0  0  0  0  0
    2.7267   -3.3137   -5.1633 O   0  0  0  0  0  0  0  0  0  0  0  0
    1.7664   -3.1703   -5.0563 H   0  0  0  0  0  0  0  0  0  0  0  0
    2.8257   -4.1500   -5.6252 H   0  0  0  0  0  0  0  0  0  0  0  0
    2.4190   -2.7111   -2.3781 O   0  0  0  0  0  0  0  0  0  0  0  0
    2.7268   -3.4770   -1.8861 H   0  0  0  0  0  0  0  0  0  0  0  0
    2.8646   -2.7470   -3.2396 H   0  0  0  0  0  0  0  0  0  0  0  0
   -2.7729   -0.3369   -3.0756 O   0  0  0  0  0  0  0  0  0  0  0  0
   -2.6993   -1.3227   -3.1293 H   0  0  0  0  0  0  0  0  0  0  0  0
   -3.7083   -0.1332   -3.0289 H   0  0  0  0  0  0  0  0  0  0  0  0
   -0.3824   -0.0166   -4.5253 O   0  0  0  0  0  0  0  0  0  0  0  0
   -0.2838    0.5444   -5.2971 H   0  0  0  0  0  0  0  0  0  0  0  0
   -1.3216   -0.0063   -4.2693 H   0  0  0  0  0  0  0  0  0  0  0  0
   -1.9713   -3.8779   -0.5552 O   0  0  0  0  0  0  0  0  0  0  0  0
   -2.7451   -3.8942    0.0155 H   0  0  0  0  0  0  0  0  0  0  0  0
   -1.4934   -4.6990   -0.4042 H   0  0  0  0  0  0  0  0  0  0  0  0
    0.2138   -2.6653   -4.1055 O   0  0  0  0  0  0  0  0  0  0  0  0
    0.0675   -1.7291   -4.3446 H   0  0  0  0  0  0  0  0  0  0  0  0
    0.8019   -2.6415   -3.3289 H   0  0  0  0  0  0  0  0  0  0  0  0
  1  2  1  0  0  0  0
  2  4  1  0  0  0  0
  2  5  1  0  0  0  0
  3  5  1  0  0  0  0
  2  7  1  0  0  0  0
  6  7  1  0  0  0  0
  7  9  1  0  0  0  0
  8  9  4  0  0  0  0
  5 10  1  0  0  0  0
  9 11  2  0  0  0  0
  5 12  1  0  0  0  0
  7 13  1  0  0  0  0
 14 15  1  0  0  0  0
 14 16  1  0  0  0  0
 17 18  1  0  0  0  0
 17 19  1  0  0  0  0
 20 21  1  0  0  0  0
 20 22  1  0  0  0  0
 23 24  1  0  0  0  0
 23 25  1  0  0  0  0
 26 27  1  0  0  0  0
 26 28  1  0  0  0  0
 29 30  1  0  0  0  0
 29 31  1  0  0  0  0
 32 33  1  0  0  0  0
 32 34  1  0  0  0  0
M  END
