 xtb: 6.7.1 (edcfbbe)
          06092517543D

 34 26  0     0  0            999 V2000
   -0.2985   -0.6899    0.9088 C   0  0  0  0  0  0  0  0  0  0  0  0
   -0.1346   -0.2662    2.3805 C   0  0  0  0  0  0  0  0  0  0  0  0
   -0.0179   -1.2178    3.2056 O   0  0  0  0  0  0  0  0  0  0  0  0
   -0.1192    0.9389    2.6725 O   0  0  0  0  0  0  0  0  0  0  0  0
   -0.4072    0.4778   -0.0536 C   0  0  0  0  0  0  0  0  0  0  0  0
   -0.4935   -0.0414   -1.4328 N   0  0  0  0  0  0  0  0  0  0  0  0
    0.5718   -1.3007    0.6667 H   0  0  0  0  0  0  0  0  0  0  0  0
   -1.1934   -1.3117    0.8576 H   0  0  0  0  0  0  0  0  0  0  0  0
   -1.2903    1.0688    0.1903 H   0  0  0  0  0  0  0  0  0  0  0  0
    0.4672    1.1197    0.0589 H   0  0  0  0  0  0  0  0  0  0  0  0
   -1.3116   -0.6957   -1.5163 H   0  0  0  0  0  0  0  0  0  0  0  0
    0.3516   -0.6342   -1.6335 H   0  0  0  0  0  0  0  0  0  0  0  0
   -0.5701    0.7147   -2.1122 H   0  0  0  0  0  0  0  0  0  0  0  0
   -0.2855   -3.7574   -0.6645 O   0  0  0  0  0  0  0  0  0  0  0  0
   -0.3465   -3.5798    0.2965 H   0  0  0  0  0  0  0  0  0  0  0  0
   -0.0716   -4.6979   -0.7091 H   0  0  0  0  0  0  0  0  0  0  0  0
    1.4301   -1.9329   -1.7856 O   0  0  0  0  0  0  0  0  0  0  0  0
    0.8904   -2.6449   -1.3821 H   0  0  0  0  0  0  0  0  0  0  0  0
    1.7251   -2.2602   -2.6399 H   0  0  0  0  0  0  0  0  0  0  0  0
   -0.4583   -3.6551    2.0796 O   0  0  0  0  0  0  0  0  0  0  0  0
   -1.3988   -3.7770    2.2916 H   0  0  0  0  0  0  0  0  0  0  0  0
   -0.2070   -2.8190    2.5307 H   0  0  0  0  0  0  0  0  0  0  0  0
   -3.2368   -3.8315    2.5592 O   0  0  0  0  0  0  0  0  0  0  0  0
   -3.6438   -3.4586    3.3459 H   0  0  0  0  0  0  0  0  0  0  0  0
   -3.8073   -4.5426    2.2481 H   0  0  0  0  0  0  0  0  0  0  0  0
   -0.2612   -1.1408    5.9461 O   0  0  0  0  0  0  0  0  0  0  0  0
   -0.1998   -1.0722    4.9709 H   0  0  0  0  0  0  0  0  0  0  0  0
    0.5541   -1.5717    6.2229 H   0  0  0  0  0  0  0  0  0  0  0  0
   -2.2940   -2.0825   -1.6042 O   0  0  0  0  0  0  0  0  0  0  0  0
   -2.6799   -2.4035   -2.4239 H   0  0  0  0  0  0  0  0  0  0  0  0
   -1.6730   -2.7694   -1.2963 H   0  0  0  0  0  0  0  0  0  0  0  0
    0.7942   -5.9332    0.9110 O   0  0  0  0  0  0  0  0  0  0  0  0
    1.7045   -6.0461    1.1972 H   0  0  0  0  0  0  0  0  0  0  0  0
    0.4052   -5.2714    1.5060 H   0  0  0  0  0  0  0  0  0  0  0  0
  1  2  1  0  0  0  0
  2  3  4  0  0  0  0
  2  4  2  0  0  0  0
  1  5  1  0  0  0  0
  5  6  1  0  0  0  0
  1  7  1  0  0  0  0
  1  8  1  0  0  0  0
  5  9  1  0  0  0  0
  5 10  1  0  0  0  0
  6 11  1  0  0  0  0
  6 12  1  0  0  0  0
  6 13  1  0  0  0  0
 14 15  1  0  0  0  0
 14 16  1  0  0  0  0
 17 18  1  0  0  0  0
 17 19  1  0  0  0  0
 20 21  1  0  0  0  0
 20 22  1  0  0  0  0
 23 24  1  0  0  0  0
 23 25  1  0  0  0  0
 26 27  1  0  0  0  0
 26 28  1  0  0  0  0
 29 30  1  0  0  0  0
 29 31  1  0  0  0  0
 32 33  1  0  0  0  0
 32 34  1  0  0  0  0
M  END
