 xtb: 6.7.1 (edcfbbe)
          06102522563D

 46 34  0     0  0            999 V2000
   -1.4795   -0.6055   -0.7589 H   0  0  0  0  0  0  0  0  0  0  0  0
   -1.3622   -0.0765   -1.7052 C   0  0  0  0  0  0  0  0  0  0  0  0
   -0.3264   -1.4847   -2.8127 H   0  0  0  0  0  0  0  0  0  0  0  0
   -2.2189   -0.3056   -2.3386 H   0  0  0  0  0  0  0  0  0  0  0  0
   -0.1437   -0.5554   -2.3851 N   0  0  0  0  0  0  0  0  0  0  0  0
   -2.3373    1.7583   -1.1755 H   0  0  0  0  0  0  0  0  0  0  0  0
   -1.3380    1.4280   -1.4730 C   0  0  0  0  0  0  0  0  0  0  0  0
   -0.2109    1.2262    0.6506 O   0  0  0  0  0  0  0  0  0  0  0  0
   -0.4278    1.9408   -0.3614 C   0  0  0  0  0  0  0  0  0  0  0  0
    0.6597   -0.6645   -1.7388 H   0  0  0  0  0  0  0  0  0  0  0  0
    0.0329    3.1023   -0.4924 O   0  0  0  0  0  0  0  0  0  0  0  0
    0.1425    0.0995   -3.1445 H   0  0  0  0  0  0  0  0  0  0  0  0
   -1.0808    1.9618   -2.3874 H   0  0  0  0  0  0  0  0  0  0  0  0
    0.6564    4.7354    1.6889 O   0  0  0  0  0  0  0  0  0  0  0  0
   -0.1764    5.2212    1.7236 H   0  0  0  0  0  0  0  0  0  0  0  0
    0.5825    4.1769    0.8907 H   0  0  0  0  0  0  0  0  0  0  0  0
    0.9809    2.2892    3.0284 O   0  0  0  0  0  0  0  0  0  0  0  0
    1.0006    3.2394    2.8244 H   0  0  0  0  0  0  0  0  0  0  0  0
    0.4458    1.9040    2.3139 H   0  0  0  0  0  0  0  0  0  0  0  0
    0.0158   -1.6353    0.8565 O   0  0  0  0  0  0  0  0  0  0  0  0
    0.8343   -1.8350    0.3790 H   0  0  0  0  0  0  0  0  0  0  0  0
   -0.0022   -0.6682    0.9139 H   0  0  0  0  0  0  0  0  0  0  0  0
   -2.1237    4.8289    0.3716 O   0  0  0  0  0  0  0  0  0  0  0  0
   -1.4124    4.3538   -0.0820 H   0  0  0  0  0  0  0  0  0  0  0  0
   -2.8580    4.1936    0.4164 H   0  0  0  0  0  0  0  0  0  0  0  0
   -3.9602    2.6533    0.3478 O   0  0  0  0  0  0  0  0  0  0  0  0
   -3.6342    1.8738    0.8358 H   0  0  0  0  0  0  0  0  0  0  0  0
   -4.9188    2.6410    0.4320 H   0  0  0  0  0  0  0  0  0  0  0  0
   -2.7811    0.4281    1.4984 O   0  0  0  0  0  0  0  0  0  0  0  0
   -1.8505    0.6247    1.3009 H   0  0  0  0  0  0  0  0  0  0  0  0
   -2.7917   -0.0167    2.3510 H   0  0  0  0  0  0  0  0  0  0  0  0
    1.6783    1.1508    0.8378 H   0  0  0  0  0  0  0  0  0  0  0  0
    2.6101    0.8797    0.8290 O   0  0  0  0  0  0  0  0  0  0  0  0
    2.9020    0.9629    1.7423 H   0  0  0  0  0  0  0  0  0  0  0  0
    0.8606    3.6351   -3.0689 O   0  0  0  0  0  0  0  0  0  0  0  0
    0.5857    3.5190   -2.1394 H   0  0  0  0  0  0  0  0  0  0  0  0
    1.5566    4.2978   -3.0626 H   0  0  0  0  0  0  0  0  0  0  0  0
    0.2773    1.3376   -5.2100 H   0  0  0  0  0  0  0  0  0  0  0  0
    0.7072    1.1940   -4.3624 O   0  0  0  0  0  0  0  0  0  0  0  0
    0.8431    2.0705   -3.9613 H   0  0  0  0  0  0  0  0  0  0  0  0
    2.9580   -1.4442   -1.4288 H   0  0  0  0  0  0  0  0  0  0  0  0
    2.4744   -0.4526   -0.3332 H   0  0  0  0  0  0  0  0  0  0  0  0
    2.1863   -1.1713   -0.9249 O   0  0  0  0  0  0  0  0  0  0  0  0
   -0.1389   -3.2562   -4.3442 H   0  0  0  0  0  0  0  0  0  0  0  0
   -0.7088   -2.9847   -3.6184 O   0  0  0  0  0  0  0  0  0  0  0  0
   -0.9065   -3.7649   -3.0929 H   0  0  0  0  0  0  0  0  0  0  0  0
  1  2  1  0  0  0  0
  2  4  1  0  0  0  0
  2  5  1  0  0  0  0
  3  5  1  0  0  0  0
  2  7  1  0  0  0  0
  6  7  1  0  0  0  0
  7  9  1  0  0  0  0
  8  9  4  0  0  0  0
  5 10  1  0  0  0  0
  9 11  4  0  0  0  0
  5 12  1  0  0  0  0
  7 13  1  0  0  0  0
 14 15  1  0  0  0  0
 14 16  1  0  0  0  0
 17 18  1  0  0  0  0
 17 19  1  0  0  0  0
 20 21  1  0  0  0  0
 20 22  1  0  0  0  0
 23 24  1  0  0  0  0
 23 25  1  0  0  0  0
 26 27  1  0  0  0  0
 26 28  1  0  0  0  0
 29 30  1  0  0  0  0
 29 31  1  0  0  0  0
 32 33  1  0  0  0  0
 33 34  1  0  0  0  0
 35 36  1  0  0  0  0
 35 37  1  0  0  0  0
 38 39  1  0  0  0  0
 39 40  1  0  0  0  0
 41 43  1  0  0  0  0
 42 43  1  0  0  0  0
 44 45  1  0  0  0  0
 45 46  1  0  0  0  0
M  END
