          37
  Built with Packmol                                             
  N            0.058148       -0.927583        1.469607
  C            0.211959        0.510020        1.257389
  C           -0.420296        1.026601       -0.053995
  C            0.232909        0.510995       -1.351786
  C           -0.125253       -0.896436       -1.755618
  O            0.432585       -1.420882       -2.861979
  O           -0.947959       -1.551103       -1.137172
  H            0.428548       -1.166868        2.416841
  H           -0.951876       -1.193831        1.431538
  H           -0.278739        1.044785        2.100148
  H            1.291996        0.772629        1.278823
  H           -0.263312        2.127518       -0.038280
  H           -1.516957        0.851348       -0.073370
  H            1.334639        0.617682       -1.263614
  H           -0.104560        1.158543       -2.189480
  H            0.618166       -1.463418        0.770947
  O           -0.331540        2.062924       -6.912328
  H            0.215045        2.817212       -6.576315
  H           -0.033439        1.283617       -6.379009
  O            0.728172        2.225918       -4.522052
  H           -0.192683        1.947993       -4.286689
  H            0.872547        3.062824       -4.012781
  O           -2.281112        0.620601       -3.224011
  H           -2.506106        1.142184       -4.035145
  H           -3.126044        0.165921       -2.979127
  O           -2.205785        1.060360        4.477482
  H           -2.042915        2.032099        4.576510
  H           -1.645594        0.642166        5.178847
  O            2.012305        1.020609        4.960285
  H            1.976947        1.990562        4.763938
  H            1.955593        0.965062        5.947357
  O            3.294140        1.287503        2.637279
  H            2.556641        1.948330        2.640983
  H            3.431569        1.074462        1.680022
  O            0.689109       -1.060512        5.369154
  H            0.325377       -0.810977        6.255744
  H            1.661078       -1.172130        5.522220
