 xtb: 6.7.1 (edcfbbe)
          06092518083D

 37 29  0     0  0            999 V2000
   -0.3731    0.0131    2.3320 N   0  0  0  0  0  0  0  0  0  0  0  0
   -0.0432    1.1929    1.5132 C   0  0  0  0  0  0  0  0  0  0  0  0
   -0.9837    1.3193    0.3191 C   0  0  0  0  0  0  0  0  0  0  0  0
   -0.7150    0.3006   -0.7962 C   0  0  0  0  0  0  0  0  0  0  0  0
   -1.4318   -1.0539   -0.6514 C   0  0  0  0  0  0  0  0  0  0  0  0
   -1.9748   -1.5352   -1.6733 O   0  0  0  0  0  0  0  0  0  0  0  0
   -1.4143   -1.6265    0.4628 O   0  0  0  0  0  0  0  0  0  0  0  0
    0.4320   -0.2797    2.9291 H   0  0  0  0  0  0  0  0  0  0  0  0
   -1.1406    0.2260    2.9893 H   0  0  0  0  0  0  0  0  0  0  0  0
   -0.1272    2.0844    2.1340 H   0  0  0  0  0  0  0  0  0  0  0  0
    0.9835    1.1056    1.1555 H   0  0  0  0  0  0  0  0  0  0  0  0
   -0.8620    2.3141   -0.1096 H   0  0  0  0  0  0  0  0  0  0  0  0
   -2.0194    1.2255    0.6511 H   0  0  0  0  0  0  0  0  0  0  0  0
    0.3527    0.0779   -0.8513 H   0  0  0  0  0  0  0  0  0  0  0  0
   -1.0107    0.7162   -1.7589 H   0  0  0  0  0  0  0  0  0  0  0  0
   -0.6898   -0.7620    1.6963 H   0  0  0  0  0  0  0  0  0  0  0  0
    1.9462    2.2091   -4.3257 O   0  0  0  0  0  0  0  0  0  0  0  0
    0.9916    2.2940   -4.1683 H   0  0  0  0  0  0  0  0  0  0  0  0
    2.0576    1.3937   -4.8240 H   0  0  0  0  0  0  0  0  0  0  0  0
   -0.8800    2.1673   -3.9947 O   0  0  0  0  0  0  0  0  0  0  0  0
   -1.3569    1.3190   -4.0546 H   0  0  0  0  0  0  0  0  0  0  0  0
   -1.5037    2.8433   -4.2784 H   0  0  0  0  0  0  0  0  0  0  0  0
   -2.2369   -0.2579   -4.0359 O   0  0  0  0  0  0  0  0  0  0  0  0
   -2.1816   -0.9479   -4.7044 H   0  0  0  0  0  0  0  0  0  0  0  0
   -2.1772   -0.7214   -3.1690 H   0  0  0  0  0  0  0  0  0  0  0  0
   -1.6427    0.5774    4.7456 O   0  0  0  0  0  0  0  0  0  0  0  0
   -2.2304   -0.0100    5.2289 H   0  0  0  0  0  0  0  0  0  0  0  0
   -0.7748    0.5081    5.1623 H   0  0  0  0  0  0  0  0  0  0  0  0
    3.3967    1.3948    3.4374 O   0  0  0  0  0  0  0  0  0  0  0  0
    3.3590    1.3979    2.4631 H   0  0  0  0  0  0  0  0  0  0  0  0
    3.3396    2.3128    3.7173 H   0  0  0  0  0  0  0  0  0  0  0  0
    3.2526    1.3432    0.6466 O   0  0  0  0  0  0  0  0  0  0  0  0
    3.4296    2.1310    0.1225 H   0  0  0  0  0  0  0  0  0  0  0  0
    3.7501    0.6245    0.2470 H   0  0  0  0  0  0  0  0  0  0  0  0
    1.5631   -0.4702    4.2068 O   0  0  0  0  0  0  0  0  0  0  0  0
    2.0118   -1.3132    4.3054 H   0  0  0  0  0  0  0  0  0  0  0  0
    2.2572    0.1928    4.0125 H   0  0  0  0  0  0  0  0  0  0  0  0
  1  2  1  0  0  0  0
  2  3  1  0  0  0  0
  3  4  1  0  0  0  0
  4  5  1  0  0  0  0
  5  6  4  0  0  0  0
  5  7  4  0  0  0  0
  1  8  1  0  0  0  0
  1  9  1  0  0  0  0
  2 10  1  0  0  0  0
  2 11  1  0  0  0  0
  3 12  1  0  0  0  0
  3 13  1  0  0  0  0
  4 14  1  0  0  0  0
  4 15  1  0  0  0  0
  1 16  1  0  0  0  0
 17 18  1  0  0  0  0
 17 19  1  0  0  0  0
 20 21  1  0  0  0  0
 20 22  1  0  0  0  0
 23 24  1  0  0  0  0
 23 25  1  0  0  0  0
 26 27  1  0  0  0  0
 26 28  1  0  0  0  0
 29 30  1  0  0  0  0
 29 31  1  0  0  0  0
 32 33  1  0  0  0  0
 32 34  1  0  0  0  0
 35 36  1  0  0  0  0
 35 37  1  0  0  0  0
M  END
