 xtb: 6.7.1 (edcfbbe)
          06092517573D

 34 26  0     0  0            999 V2000
    1.7497   -0.6888   -0.4841 H   0  0  0  0  0  0  0  0  0  0  0  0
    0.7930   -0.5403   -0.9888 C   0  0  0  0  0  0  0  0  0  0  0  0
    1.6044    0.9486   -2.2441 H   0  0  0  0  0  0  0  0  0  0  0  0
    0.6555   -1.3271   -1.7323 H   0  0  0  0  0  0  0  0  0  0  0  0
    0.7822    0.7763   -1.6446 N   0  0  0  0  0  0  0  0  0  0  0  0
   -0.3913   -1.5587    0.5231 H   0  0  0  0  0  0  0  0  0  0  0  0
   -0.3326   -0.5835    0.0419 C   0  0  0  0  0  0  0  0  0  0  0  0
    0.1754    1.6372    0.8177 O   0  0  0  0  0  0  0  0  0  0  0  0
   -0.1770    0.4743    1.1617 C   0  0  0  0  0  0  0  0  0  0  0  0
    0.7504    1.4609   -0.8634 H   0  0  0  0  0  0  0  0  0  0  0  0
   -0.4234    0.1311    2.3295 O   0  0  0  0  0  0  0  0  0  0  0  0
   -0.1124    0.9086   -2.1873 H   0  0  0  0  0  0  0  0  0  0  0  0
   -1.2872   -0.3851   -0.4507 H   0  0  0  0  0  0  0  0  0  0  0  0
   -1.0212    2.6173   -5.0815 O   0  0  0  0  0  0  0  0  0  0  0  0
   -0.5646    2.2570   -5.8464 H   0  0  0  0  0  0  0  0  0  0  0  0
   -0.3501    3.1162   -4.5651 H   0  0  0  0  0  0  0  0  0  0  0  0
    0.7497   -2.6265   -3.5769 O   0  0  0  0  0  0  0  0  0  0  0  0
    1.2512   -3.4375   -3.6974 H   0  0  0  0  0  0  0  0  0  0  0  0
    0.0181   -2.6480   -4.2010 H   0  0  0  0  0  0  0  0  0  0  0  0
   -0.4646    4.8556    4.7780 O   0  0  0  0  0  0  0  0  0  0  0  0
   -1.1663    4.2303    4.5721 H   0  0  0  0  0  0  0  0  0  0  0  0
    0.3676    4.3962    4.6279 H   0  0  0  0  0  0  0  0  0  0  0  0
   -0.8018    3.4806   -0.9945 O   0  0  0  0  0  0  0  0  0  0  0  0
   -1.1618    4.2837   -0.6109 H   0  0  0  0  0  0  0  0  0  0  0  0
   -0.5132    2.9242   -0.2480 H   0  0  0  0  0  0  0  0  0  0  0  0
    2.9841    1.7050   -3.1225 O   0  0  0  0  0  0  0  0  0  0  0  0
    3.7607    1.9694   -2.6203 H   0  0  0  0  0  0  0  0  0  0  0  0
    3.2941    1.2595   -3.9175 H   0  0  0  0  0  0  0  0  0  0  0  0
   -1.6342    1.3677   -2.7242 O   0  0  0  0  0  0  0  0  0  0  0  0
   -1.6820    2.1595   -2.1667 H   0  0  0  0  0  0  0  0  0  0  0  0
   -1.5585    1.7092   -3.6379 H   0  0  0  0  0  0  0  0  0  0  0  0
    0.8199    3.6372   -3.3521 O   0  0  0  0  0  0  0  0  0  0  0  0
    1.5771    3.0408   -3.2411 H   0  0  0  0  0  0  0  0  0  0  0  0
    0.3392    3.6306   -2.5075 H   0  0  0  0  0  0  0  0  0  0  0  0
  1  2  1  0  0  0  0
  2  4  1  0  0  0  0
  2  5  1  0  0  0  0
  3  5  1  0  0  0  0
  2  7  1  0  0  0  0
  6  7  1  0  0  0  0
  7  9  1  0  0  0  0
  8  9  4  0  0  0  0
  5 10  1  0  0  0  0
  9 11  2  0  0  0  0
  5 12  1  0  0  0  0
  7 13  1  0  0  0  0
 14 15  1  0  0  0  0
 14 16  1  0  0  0  0
 17 18  1  0  0  0  0
 17 19  1  0  0  0  0
 20 21  1  0  0  0  0
 20 22  1  0  0  0  0
 23 24  1  0  0  0  0
 23 25  1  0  0  0  0
 26 27  1  0  0  0  0
 26 28  1  0  0  0  0
 29 30  1  0  0  0  0
 29 31  1  0  0  0  0
 32 33  1  0  0  0  0
 32 34  1  0  0  0  0
M  END
