
 OpenBabel05072518203D

 13 12  0  0  0  0  0  0  0  0999 V2000
   -0.2502    0.2111   -1.4520 C   0  0  0  0  0  0  0  0  0  0  0  0
   -1.1865    0.9234   -0.5112 C   0  0  0  0  0  0  0  0  0  0  0  0
   -2.4890    1.0369   -0.8452 O   0  0  0  0  0  0  0  0  0  0  0  0
   -0.7870    1.3942    0.5447 O   0  0  0  0  0  0  0  0  0  0  0  0
    1.1979    0.1578   -0.9377 C   0  0  0  0  0  0  0  0  0  0  0  0
    2.0631   -0.5568   -1.8726 N   0  0  0  0  0  0  0  0  0  0  0  0
   -0.2701    0.7365   -2.4312 H   0  0  0  0  0  0  0  0  0  0  0  0
   -0.6243   -0.8251   -1.5963 H   0  0  0  0  0  0  0  0  0  0  0  0
   -3.1223    1.4841   -0.2658 H   0  0  0  0  0  0  0  0  0  0  0  0
    1.2290   -0.3597    0.0460 H   0  0  0  0  0  0  0  0  0  0  0  0
    1.5870    1.1908   -0.8036 H   0  0  0  0  0  0  0  0  0  0  0  0
    1.7225   -1.5392   -1.9853 H   0  0  0  0  0  0  0  0  0  0  0  0
    2.0454   -0.0814   -2.8040 H   0  0  0  0  0  0  0  0  0  0  0  0
  1  2  1  0  0  0  0
  1  5  1  0  0  0  0
  1  7  1  0  0  0  0
  1  8  1  0  0  0  0
  2  3  1  0  0  0  0
  2  4  2  0  0  0  0
  3  9  1  0  0  0  0
  5  6  1  0  0  0  0
  5 10  1  0  0  0  0
  5 11  1  0  0  0  0
  6 12  1  0  0  0  0
  6 13  1  0  0  0  0
M  END
