 xtb: 6.7.1 (edcfbbe)
          06102523043D

 46 34  0     0  0            999 V2000
   -1.9472    0.5650   -1.0933 H   0  0  0  0  0  0  0  0  0  0  0  0
   -1.4285    0.8766   -2.0006 C   0  0  0  0  0  0  0  0  0  0  0  0
   -0.1346   -0.7284   -2.3503 H   0  0  0  0  0  0  0  0  0  0  0  0
   -1.9999    0.5448   -2.8676 H   0  0  0  0  0  0  0  0  0  0  0  0
   -0.0902    0.2562   -2.0319 N   0  0  0  0  0  0  0  0  0  0  0  0
   -2.3590    2.8070   -2.0942 H   0  0  0  0  0  0  0  0  0  0  0  0
   -1.3462    2.4015   -2.0640 C   0  0  0  0  0  0  0  0  0  0  0  0
    0.5312    3.4871   -1.0563 O   0  0  0  0  0  0  0  0  0  0  0  0
   -0.6287    3.0340   -0.8687 C   0  0  0  0  0  0  0  0  0  0  0  0
    0.3520    0.2350   -1.0791 H   0  0  0  0  0  0  0  0  0  0  0  0
   -1.2153    3.0841    0.2363 O   0  0  0  0  0  0  0  0  0  0  0  0
    0.5531    0.7911   -2.6481 H   0  0  0  0  0  0  0  0  0  0  0  0
   -0.8229    2.7061   -2.9710 H   0  0  0  0  0  0  0  0  0  0  0  0
    2.6407    2.3128    0.2853 O   0  0  0  0  0  0  0  0  0  0  0  0
    2.9653    2.8336    1.0245 H   0  0  0  0  0  0  0  0  0  0  0  0
    1.9169    2.8260   -0.1177 H   0  0  0  0  0  0  0  0  0  0  0  0
   -1.9572    4.8518    2.3548 O   0  0  0  0  0  0  0  0  0  0  0  0
   -1.5118    4.2698    1.7189 H   0  0  0  0  0  0  0  0  0  0  0  0
   -1.3017    5.4925    2.6444 H   0  0  0  0  0  0  0  0  0  0  0  0
   -3.9423    3.4682    0.5730 O   0  0  0  0  0  0  0  0  0  0  0  0
   -2.9926    3.3186    0.4041 H   0  0  0  0  0  0  0  0  0  0  0  0
   -3.9606    4.1548    1.2487 H   0  0  0  0  0  0  0  0  0  0  0  0
    1.3008   -0.0936    0.2780 O   0  0  0  0  0  0  0  0  0  0  0  0
    1.8397   -0.7895   -0.1545 H   0  0  0  0  0  0  0  0  0  0  0  0
    1.8823    0.6794    0.3852 H   0  0  0  0  0  0  0  0  0  0  0  0
   -0.6328   -1.2244    2.0275 O   0  0  0  0  0  0  0  0  0  0  0  0
    0.1250   -0.8562    1.5419 H   0  0  0  0  0  0  0  0  0  0  0  0
   -1.3735   -0.6427    1.7926 H   0  0  0  0  0  0  0  0  0  0  0  0
   -2.4973    0.7080    1.0794 O   0  0  0  0  0  0  0  0  0  0  0  0
   -3.3634    0.9941    1.3854 H   0  0  0  0  0  0  0  0  0  0  0  0
   -1.9947    1.5249    0.9223 H   0  0  0  0  0  0  0  0  0  0  0  0
   -4.5814    3.5113   -2.1320 O   0  0  0  0  0  0  0  0  0  0  0  0
   -4.4747    3.5682   -1.1646 H   0  0  0  0  0  0  0  0  0  0  0  0
   -5.4162    3.0558   -2.2777 H   0  0  0  0  0  0  0  0  0  0  0  0
    1.6809    2.0872   -3.1687 O   0  0  0  0  0  0  0  0  0  0  0  0
    1.4067    2.6902   -2.4526 H   0  0  0  0  0  0  0  0  0  0  0  0
    2.6382    2.0195   -3.1168 H   0  0  0  0  0  0  0  0  0  0  0  0
    1.5221    6.1339   -1.0475 O   0  0  0  0  0  0  0  0  0  0  0  0
    1.3766    6.4596   -1.9415 H   0  0  0  0  0  0  0  0  0  0  0  0
    1.1675    5.2300   -1.0282 H   0  0  0  0  0  0  0  0  0  0  0  0
   -0.0378   -2.4656   -2.7452 O   0  0  0  0  0  0  0  0  0  0  0  0
   -0.7032   -3.0027   -2.3030 H   0  0  0  0  0  0  0  0  0  0  0  0
   -0.0362   -2.7111   -3.6756 H   0  0  0  0  0  0  0  0  0  0  0  0
    2.3687   -2.1084   -1.2315 O   0  0  0  0  0  0  0  0  0  0  0  0
    1.5996   -2.2857   -1.8001 H   0  0  0  0  0  0  0  0  0  0  0  0
    2.6036   -2.9432   -0.8181 H   0  0  0  0  0  0  0  0  0  0  0  0
  1  2  1  0  0  0  0
  2  4  1  0  0  0  0
  2  5  1  0  0  0  0
  3  5  1  0  0  0  0
  2  7  1  0  0  0  0
  6  7  1  0  0  0  0
  7  9  1  0  0  0  0
  8  9  4  0  0  0  0
  5 10  1  0  0  0  0
  9 11  4  0  0  0  0
  5 12  1  0  0  0  0
  7 13  1  0  0  0  0
 14 15  1  0  0  0  0
 14 16  1  0  0  0  0
 17 18  1  0  0  0  0
 17 19  1  0  0  0  0
 20 21  1  0  0  0  0
 20 22  1  0  0  0  0
 23 24  1  0  0  0  0
 23 25  1  0  0  0  0
 26 27  1  0  0  0  0
 26 28  1  0  0  0  0
 29 30  1  0  0  0  0
 29 31  1  0  0  0  0
 32 33  1  0  0  0  0
 32 34  1  0  0  0  0
 35 36  1  0  0  0  0
 35 37  1  0  0  0  0
 38 39  1  0  0  0  0
 38 40  1  0  0  0  0
 41 42  1  0  0  0  0
 41 43  1  0  0  0  0
 44 45  1  0  0  0  0
 44 46  1  0  0  0  0
M  END
