 xtb: 6.7.1 (edcfbbe)
          06092518043D

 37 29  0     0  0            999 V2000
    0.4214   -0.8438    2.5829 N   0  0  0  0  0  0  0  0  0  0  0  0
   -0.2559   -0.4720    1.3290 C   0  0  0  0  0  0  0  0  0  0  0  0
    0.2879    0.8494    0.7995 C   0  0  0  0  0  0  0  0  0  0  0  0
   -0.4026    1.2634   -0.4953 C   0  0  0  0  0  0  0  0  0  0  0  0
   -0.0525    0.4042   -1.7403 C   0  0  0  0  0  0  0  0  0  0  0  0
    0.6592   -0.6106   -1.5969 O   0  0  0  0  0  0  0  0  0  0  0  0
   -0.5284    0.8095   -2.8280 O   0  0  0  0  0  0  0  0  0  0  0  0
    1.4475   -0.9110    2.4281 H   0  0  0  0  0  0  0  0  0  0  0  0
    0.2724   -0.1097    3.3061 H   0  0  0  0  0  0  0  0  0  0  0  0
   -1.3294   -0.3884    1.5061 H   0  0  0  0  0  0  0  0  0  0  0  0
   -0.0838   -1.2330    0.5672 H   0  0  0  0  0  0  0  0  0  0  0  0
    1.3562    0.7432    0.6007 H   0  0  0  0  0  0  0  0  0  0  0  0
    0.1360    1.6347    1.5414 H   0  0  0  0  0  0  0  0  0  0  0  0
   -1.4895    1.2175   -0.3919 H   0  0  0  0  0  0  0  0  0  0  0  0
   -0.1440    2.2894   -0.7683 H   0  0  0  0  0  0  0  0  0  0  0  0
    0.0602   -1.7497    2.9479 H   0  0  0  0  0  0  0  0  0  0  0  0
    1.3057   -4.1117    5.5300 O   0  0  0  0  0  0  0  0  0  0  0  0
    1.6254   -3.4762    6.1785 H   0  0  0  0  0  0  0  0  0  0  0  0
    2.0660   -4.6169    5.2268 H   0  0  0  0  0  0  0  0  0  0  0  0
    3.1845   -0.6875    2.5155 O   0  0  0  0  0  0  0  0  0  0  0  0
    3.8745   -1.3521    2.5681 H   0  0  0  0  0  0  0  0  0  0  0  0
    3.2203   -0.1662    3.3471 H   0  0  0  0  0  0  0  0  0  0  0  0
   -0.5316   -3.2275    3.6265 O   0  0  0  0  0  0  0  0  0  0  0  0
   -0.7007   -3.9751    3.0483 H   0  0  0  0  0  0  0  0  0  0  0  0
    0.0450   -3.5511    4.3421 H   0  0  0  0  0  0  0  0  0  0  0  0
   -3.6306   -0.5797    1.8795 O   0  0  0  0  0  0  0  0  0  0  0  0
   -4.0829   -0.6410    2.7279 H   0  0  0  0  0  0  0  0  0  0  0  0
   -4.0558   -1.2077    1.2901 H   0  0  0  0  0  0  0  0  0  0  0  0
    2.9540    0.8714    4.7457 O   0  0  0  0  0  0  0  0  0  0  0  0
    3.2980    1.7602    4.6248 H   0  0  0  0  0  0  0  0  0  0  0  0
    1.9816    0.9555    4.7691 H   0  0  0  0  0  0  0  0  0  0  0  0
    0.1718    1.1040    4.5649 O   0  0  0  0  0  0  0  0  0  0  0  0
   -0.1290    1.9198    4.1300 H   0  0  0  0  0  0  0  0  0  0  0  0
   -0.4747    0.8958    5.2462 H   0  0  0  0  0  0  0  0  0  0  0  0
   -0.7295    3.4086    3.2933 O   0  0  0  0  0  0  0  0  0  0  0  0
   -0.2490    4.2305    3.1619 H   0  0  0  0  0  0  0  0  0  0  0  0
   -1.6562    3.5838    3.1059 H   0  0  0  0  0  0  0  0  0  0  0  0
  1  2  1  0  0  0  0
  2  3  1  0  0  0  0
  3  4  1  0  0  0  0
  4  5  1  0  0  0  0
  5  6  4  0  0  0  0
  5  7  4  0  0  0  0
  1  8  1  0  0  0  0
  1  9  1  0  0  0  0
  2 10  1  0  0  0  0
  2 11  1  0  0  0  0
  3 12  1  0  0  0  0
  3 13  1  0  0  0  0
  4 14  1  0  0  0  0
  4 15  1  0  0  0  0
  1 16  1  0  0  0  0
 17 18  1  0  0  0  0
 17 19  1  0  0  0  0
 20 21  1  0  0  0  0
 20 22  1  0  0  0  0
 23 24  1  0  0  0  0
 23 25  1  0  0  0  0
 26 27  1  0  0  0  0
 26 28  1  0  0  0  0
 29 30  1  0  0  0  0
 29 31  1  0  0  0  0
 32 33  1  0  0  0  0
 32 34  1  0  0  0  0
 35 36  1  0  0  0  0
 35 37  1  0  0  0  0
M  END
