          37
  Built with Packmol                                             
  N           -0.443767       -0.471812        1.745205
  C            0.693510        0.104360        1.026899
  C            0.252325        0.999585       -0.146245
  C           -0.573823        0.306802       -1.244857
  C            0.172762       -0.788129       -1.957711
  O            0.408222       -0.687945       -3.151027
  O            0.546344       -1.903284       -1.303739
  H           -0.087472       -1.004114        2.571270
  H           -1.081184        0.285863        2.081386
  H            1.280979        0.732860        1.731174
  H            1.368045       -0.703734        0.677139
  H            1.158667        1.443130       -0.611175
  H           -0.355788        1.834342        0.265274
  H           -1.517364       -0.100802       -0.829235
  H           -0.852734        1.086771       -1.985872
  H           -0.968720       -1.133893        1.131516
  O           -1.976443       -2.236682       -4.751385
  H           -2.435325       -1.511040       -4.257946
  H           -1.019932       -2.128335       -4.519092
  O           -2.322374       -1.986865        4.955042
  H           -1.388093       -1.692751        5.100734
  H           -2.238886       -2.855834        4.487564
  O           -3.896686        0.453412        3.067917
  H           -3.098166        1.036254        3.125125
  H           -3.639725       -0.368200        3.557343
  O           -1.564527        0.537195       -6.060723
  H           -1.658637        0.330085       -7.024497
  H           -1.205441       -0.295093       -5.662016
  O            3.621349       -2.243523       -0.395003
  H            3.543346       -1.862131       -1.305534
  H            3.854881       -1.470755        0.178500
  O            0.571283        1.410750        6.317356
  H           -0.280465        1.819789        6.613705
  H            0.395925        0.436215        6.329434
  O            3.455529       -1.841827        2.308757
  H            2.901564       -2.530691        1.862438
  H            3.568944       -2.175883        3.234045
