 xtb: 6.7.1 (edcfbbe)
          06102511283D

 28 23  0     0  0            999 V2000
    2.1734   -0.1817    0.9684 N   0  0  0  0  0  0  0  0  0  0  0  0
    3.0916    0.8549    0.4574 C   0  0  0  0  0  0  0  0  0  0  0  0
    3.0111    0.9453   -1.0619 C   0  0  0  0  0  0  0  0  0  0  0  0
    3.9456    2.0152   -1.6125 C   0  0  0  0  0  0  0  0  0  0  0  0
    3.7655    2.2335   -3.1273 C   0  0  0  0  0  0  0  0  0  0  0  0
    2.6788    1.8985   -3.6478 O   0  0  0  0  0  0  0  0  0  0  0  0
    4.7178    2.7599   -3.7513 O   0  0  0  0  0  0  0  0  0  0  0  0
    1.2040    0.0073    0.6399 H   0  0  0  0  0  0  0  0  0  0  0  0
    2.4466   -1.1024    0.6201 H   0  0  0  0  0  0  0  0  0  0  0  0
    4.1137    0.6185    0.7538 H   0  0  0  0  0  0  0  0  0  0  0  0
    2.8180    1.8162    0.8909 H   0  0  0  0  0  0  0  0  0  0  0  0
    1.9983    1.1945   -1.3814 H   0  0  0  0  0  0  0  0  0  0  0  0
    3.2775   -0.0076   -1.5225 H   0  0  0  0  0  0  0  0  0  0  0  0
    4.9953    1.7778   -1.4340 H   0  0  0  0  0  0  0  0  0  0  0  0
    3.7418    2.9848   -1.1499 H   0  0  0  0  0  0  0  0  0  0  0  0
    2.1766   -0.1995    2.0111 H   0  0  0  0  0  0  0  0  0  0  0  0
   -0.4023    0.2575    0.0046 O   0  0  0  0  0  0  0  0  0  0  0  0
   -1.0174    0.9481    0.2664 H   0  0  0  0  0  0  0  0  0  0  0  0
   -0.7194   -0.1219   -0.8185 H   0  0  0  0  0  0  0  0  0  0  0  0
    2.2303   -0.1670    3.7295 O   0  0  0  0  0  0  0  0  0  0  0  0
    3.0016   -0.3484    4.2728 H   0  0  0  0  0  0  0  0  0  0  0  0
    1.6023    0.3280    4.2627 H   0  0  0  0  0  0  0  0  0  0  0  0
    2.4857    2.4060   -6.3297 O   0  0  0  0  0  0  0  0  0  0  0  0
    2.4900    2.2017   -5.3670 H   0  0  0  0  0  0  0  0  0  0  0  0
    3.3628    2.7586   -6.5104 H   0  0  0  0  0  0  0  0  0  0  0  0
    7.1466    2.9117   -2.5285 O   0  0  0  0  0  0  0  0  0  0  0  0
    6.2848    2.8771   -2.9983 H   0  0  0  0  0  0  0  0  0  0  0  0
    7.7357    3.4045   -3.1078 H   0  0  0  0  0  0  0  0  0  0  0  0
  1  2  1  0  0  0  0
  2  3  1  0  0  0  0
  3  4  1  0  0  0  0
  4  5  1  0  0  0  0
  5  6  4  0  0  0  0
  5  7  4  0  0  0  0
  1  8  1  0  0  0  0
  1  9  1  0  0  0  0
  2 10  1  0  0  0  0
  2 11  1  0  0  0  0
  3 12  1  0  0  0  0
  3 13  1  0  0  0  0
  4 14  1  0  0  0  0
  4 15  1  0  0  0  0
  1 16  1  0  0  0  0
 17 18  1  0  0  0  0
 17 19  1  0  0  0  0
 20 21  1  0  0  0  0
 20 22  1  0  0  0  0
 23 24  1  0  0  0  0
 23 25  1  0  0  0  0
 26 27  1  0  0  0  0
 26 28  1  0  0  0  0
M  END
