          34
  Built with Packmol                                             
  H            1.420531       -0.693439       -0.457594
  C            0.315625       -0.640915       -0.572756
  H            0.379447        0.341256       -2.375102
  H           -0.020204       -1.577267       -1.069783
  N           -0.042833        0.489322       -1.430827
  H           -0.104344       -1.525775        1.342275
  C           -0.356072       -0.581772        0.809877
  O           -0.155039        1.845644        1.277794
  C            0.099005        0.578296        1.654298
  H            0.334594        1.383914       -1.050468
  O            0.669992        0.373338        2.712012
  H           -1.081518        0.548347       -1.533033
  H           -1.459185       -0.540948        0.693308
  O           -3.217166        2.550327        2.343513
  H           -2.247321        2.708375        2.220911
  H           -3.279130        1.608529        2.643162
  O           -2.005140       -3.622655        0.695377
  H           -2.571040       -4.360876        0.355676
  H           -1.143354       -3.731691        0.219930
  O            0.961980       -4.760051       -1.481055
  H            1.131425       -3.789160       -1.384778
  H            0.561770       -5.029022       -0.616128
  O            0.549895       -4.343153        3.070411
  H            1.164146       -4.438466        3.841269
  H            0.398630       -3.367594        2.992856
  O           -1.122120       -4.145297       -2.044050
  H           -1.812279       -3.993992       -2.737879
  H           -1.415734       -4.967798       -1.577257
  O           -1.642971       -4.184370        3.015480
  H           -1.620843       -3.710689        3.884817
  H           -2.594901       -4.159855        2.743744
  O            0.472966       -4.131696       -3.577051
  H            0.206026       -3.211683       -3.827909
  H           -0.187104       -4.713975       -4.030783
