          34
  Built with Packmol                                             
  C            0.000717       -0.522558        0.678044
  C            0.000155        0.093927        2.050368
  O           -0.000195       -0.630131        3.032262
  O           -0.000797        1.431559        2.216433
  C            0.000989        0.525311       -0.443260
  N           -0.000301       -0.116591       -1.756652
  H            0.902593       -1.162928        0.578888
  H           -0.902640       -1.160238        0.579017
  H           -0.902002        1.167413       -0.351037
  H            0.903666        1.168949       -0.351720
  H           -0.857069       -0.705532       -1.867523
  H            0.853228       -0.710069       -1.867795
  H            0.001656        0.620887       -2.497026
  O           -2.348259       -3.674439        1.626319
  H           -1.833028       -2.828826        1.635557
  H           -1.898147       -4.246563        2.297651
  O           -3.425540       -1.784174       -0.775526
  H           -3.120974       -0.842242       -0.800309
  H           -2.683963       -2.273273       -0.337966
  O           -3.215125        1.224820       -2.480132
  H           -3.900997        0.990856       -1.805260
  H           -2.352344        1.102339       -2.009792
  O           -1.978452       -3.809462       -2.963851
  H           -2.468359       -4.044303       -2.135930
  H           -1.317902       -3.129780       -2.676937
  O           -3.016708        1.897275        1.020844
  H           -2.110875        1.737477        1.387645
  H           -3.630862        1.564378        1.722705
  O            0.143128       -4.750139        0.748228
  H            0.182185       -4.308832        1.633855
  H           -0.732101       -4.477630        0.373626
  O            2.442079       -3.569957       -1.527516
  H            1.621004       -4.122830       -1.555395
  H            2.341648       -3.017566       -0.711802
