 xtb: 6.7.1 (edcfbbe)
          06112502163D

166115  0     0  0            999 V2000
   -0.6161   -0.0666    1.7627 N   0  0  0  0  0  0  0  0  0  0  0  0
    0.3825    0.7360    1.0384 C   0  0  0  0  0  0  0  0  0  0  0  0
   -0.2595    1.7516    0.1022 C   0  0  0  0  0  0  0  0  0  0  0  0
   -0.6192    1.1603   -1.2702 C   0  0  0  0  0  0  0  0  0  0  0  0
    0.6541    0.8526   -2.0300 C   0  0  0  0  0  0  0  0  0  0  0  0
    1.0318    1.6015   -2.9699 O   0  0  0  0  0  0  0  0  0  0  0  0
    1.3333   -0.1371   -1.6492 O   0  0  0  0  0  0  0  0  0  0  0  0
   -0.1193   -0.7759    2.3072 H   0  0  0  0  0  0  0  0  0  0  0  0
   -1.1430    0.5604    2.4063 H   0  0  0  0  0  0  0  0  0  0  0  0
    0.9920    1.2616    1.7678 H   0  0  0  0  0  0  0  0  0  0  0  0
    1.0270    0.0770    0.4623 H   0  0  0  0  0  0  0  0  0  0  0  0
    0.4231    2.5868   -0.0555 H   0  0  0  0  0  0  0  0  0  0  0  0
   -1.1674    2.1541    0.5463 H   0  0  0  0  0  0  0  0  0  0  0  0
   -1.1806    0.2400   -1.1446 H   0  0  0  0  0  0  0  0  0  0  0  0
   -1.2093    1.8746   -1.8368 H   0  0  0  0  0  0  0  0  0  0  0  0
   -1.2839   -0.5450    1.1366 H   0  0  0  0  0  0  0  0  0  0  0  0
    2.5419    2.2846    2.7683 O   0  0  0  0  0  0  0  0  0  0  0  0
    3.0419    2.2156    3.5894 H   0  0  0  0  0  0  0  0  0  0  0  0
    3.1954    2.4797    2.0712 H   0  0  0  0  0  0  0  0  0  0  0  0
   -4.5054   -0.1382   -2.9868 O   0  0  0  0  0  0  0  0  0  0  0  0
   -4.3120    0.1649   -2.0738 H   0  0  0  0  0  0  0  0  0  0  0  0
   -3.7018    0.0700   -3.4930 H   0  0  0  0  0  0  0  0  0  0  0  0
   -3.1260   -5.4388    0.6076 O   0  0  0  0  0  0  0  0  0  0  0  0
   -3.1321   -6.2347    1.1399 H   0  0  0  0  0  0  0  0  0  0  0  0
   -2.4058   -4.8545    0.9811 H   0  0  0  0  0  0  0  0  0  0  0  0
    0.3389    3.8251    2.6897 O   0  0  0  0  0  0  0  0  0  0  0  0
    0.3393    4.2288    3.5712 H   0  0  0  0  0  0  0  0  0  0  0  0
    1.1623    3.2837    2.6676 H   0  0  0  0  0  0  0  0  0  0  0  0
    3.7765   -2.4371    3.8974 O   0  0  0  0  0  0  0  0  0  0  0  0
    4.4096   -2.1919    3.2167 H   0  0  0  0  0  0  0  0  0  0  0  0
    3.3137   -3.2305    3.5789 H   0  0  0  0  0  0  0  0  0  0  0  0
    2.0058   -4.2714    2.7802 O   0  0  0  0  0  0  0  0  0  0  0  0
    1.5716   -5.0072    2.3113 H   0  0  0  0  0  0  0  0  0  0  0  0
    1.2690   -3.7978    3.2297 H   0  0  0  0  0  0  0  0  0  0  0  0
   -0.0946    0.5853    7.2416 O   0  0  0  0  0  0  0  0  0  0  0  0
    0.3969    0.9049    7.9987 H   0  0  0  0  0  0  0  0  0  0  0  0
    0.3992    0.8793    6.4261 H   0  0  0  0  0  0  0  0  0  0  0  0
    1.7355   -0.7223    3.2417 O   0  0  0  0  0  0  0  0  0  0  0  0
    2.4964   -1.1649    3.6566 H   0  0  0  0  0  0  0  0  0  0  0  0
    1.5219    0.0538    3.7913 H   0  0  0  0  0  0  0  0  0  0  0  0
   -4.5713   -3.1710    0.0686 O   0  0  0  0  0  0  0  0  0  0  0  0
   -4.5108   -3.0562   -0.9033 H   0  0  0  0  0  0  0  0  0  0  0  0
   -4.2273   -4.0667    0.2324 H   0  0  0  0  0  0  0  0  0  0  0  0
    0.1992   -2.6674    4.1220 O   0  0  0  0  0  0  0  0  0  0  0  0
    0.7562   -1.9525    3.7109 H   0  0  0  0  0  0  0  0  0  0  0  0
    0.4428   -2.6283    5.0647 H   0  0  0  0  0  0  0  0  0  0  0  0
    0.6283   -2.0216    6.7573 O   0  0  0  0  0  0  0  0  0  0  0  0
   -0.1693   -2.4883    7.0615 H   0  0  0  0  0  0  0  0  0  0  0  0
    0.3785   -1.0799    6.8836 H   0  0  0  0  0  0  0  0  0  0  0  0
    0.2335   -2.3797   -0.1393 O   0  0  0  0  0  0  0  0  0  0  0  0
    0.3636   -1.6774   -0.7906 H   0  0  0  0  0  0  0  0  0  0  0  0
    1.1382   -2.6098    0.1620 H   0  0  0  0  0  0  0  0  0  0  0  0
   -2.4430   -1.4479    0.0876 O   0  0  0  0  0  0  0  0  0  0  0  0
   -2.0155   -1.6916   -0.7484 H   0  0  0  0  0  0  0  0  0  0  0  0
   -3.1494   -2.1079    0.2310 H   0  0  0  0  0  0  0  0  0  0  0  0
   -2.0543   -2.5130    6.9111 O   0  0  0  0  0  0  0  0  0  0  0  0
   -2.0938   -1.6740    6.4196 H   0  0  0  0  0  0  0  0  0  0  0  0
   -2.2001   -3.1940    6.2184 H   0  0  0  0  0  0  0  0  0  0  0  0
   -3.6836   -2.7738    2.7436 O   0  0  0  0  0  0  0  0  0  0  0  0
   -4.3071   -2.9569    2.0336 H   0  0  0  0  0  0  0  0  0  0  0  0
   -3.6017   -1.7864    2.7836 H   0  0  0  0  0  0  0  0  0  0  0  0
    3.8214   -0.6176    1.4989 O   0  0  0  0  0  0  0  0  0  0  0  0
    3.8551   -0.1210    0.6682 H   0  0  0  0  0  0  0  0  0  0  0  0
    2.9756   -0.3805    1.9438 H   0  0  0  0  0  0  0  0  0  0  0  0
   -1.8015    2.5373    5.9777 O   0  0  0  0  0  0  0  0  0  0  0  0
   -1.4784    1.7657    6.4704 H   0  0  0  0  0  0  0  0  0  0  0  0
   -1.8288    2.2499    5.0316 H   0  0  0  0  0  0  0  0  0  0  0  0
    5.3380    0.9967    3.0623 O   0  0  0  0  0  0  0  0  0  0  0  0
    4.8626    0.3321    2.5112 H   0  0  0  0  0  0  0  0  0  0  0  0
    5.3996    1.7715    2.4916 H   0  0  0  0  0  0  0  0  0  0  0  0
    2.7758   -2.9332    0.5452 O   0  0  0  0  0  0  0  0  0  0  0  0
    2.5748   -3.4823    1.3330 H   0  0  0  0  0  0  0  0  0  0  0  0
    3.2247   -2.1340    0.8949 H   0  0  0  0  0  0  0  0  0  0  0  0
    3.3764    5.1055   -0.1501 O   0  0  0  0  0  0  0  0  0  0  0  0
    2.3998    5.1234   -0.0377 H   0  0  0  0  0  0  0  0  0  0  0  0
    3.6847    5.9613    0.1586 H   0  0  0  0  0  0  0  0  0  0  0  0
    3.3618   -1.3381    6.4031 O   0  0  0  0  0  0  0  0  0  0  0  0
    2.4695   -1.6503    6.6280 H   0  0  0  0  0  0  0  0  0  0  0  0
    3.6252   -1.8598    5.6258 H   0  0  0  0  0  0  0  0  0  0  0  0
    3.7441    1.1510    5.3147 O   0  0  0  0  0  0  0  0  0  0  0  0
    4.4132    1.0435    4.6116 H   0  0  0  0  0  0  0  0  0  0  0  0
    3.7238    0.2960    5.7909 H   0  0  0  0  0  0  0  0  0  0  0  0
   -0.8105   -0.3625   -6.5554 O   0  0  0  0  0  0  0  0  0  0  0  0
   -0.0437   -0.9290   -6.3022 H   0  0  0  0  0  0  0  0  0  0  0  0
   -1.3005   -0.8772   -7.2041 H   0  0  0  0  0  0  0  0  0  0  0  0
   -0.9918    2.9257   -4.0835 O   0  0  0  0  0  0  0  0  0  0  0  0
   -0.8197    2.9716   -5.0392 H   0  0  0  0  0  0  0  0  0  0  0  0
   -0.1748    2.5296   -3.6972 H   0  0  0  0  0  0  0  0  0  0  0  0
   -1.2536    4.5595   -1.6303 O   0  0  0  0  0  0  0  0  0  0  0  0
   -1.0960    4.2213   -2.5219 H   0  0  0  0  0  0  0  0  0  0  0  0
   -2.1021    4.1637   -1.3556 H   0  0  0  0  0  0  0  0  0  0  0  0
   -1.5722    1.9942    3.3434 O   0  0  0  0  0  0  0  0  0  0  0  0
   -2.3848    2.2252    2.8605 H   0  0  0  0  0  0  0  0  0  0  0  0
   -0.9006    2.6511    3.0678 H   0  0  0  0  0  0  0  0  0  0  0  0
   -2.0180    0.3428   -4.1708 O   0  0  0  0  0  0  0  0  0  0  0  0
   -1.7587    1.2807   -4.0826 H   0  0  0  0  0  0  0  0  0  0  0  0
   -1.6541    0.0604   -5.0293 H   0  0  0  0  0  0  0  0  0  0  0  0
   -1.3897   -3.7422    1.6675 O   0  0  0  0  0  0  0  0  0  0  0  0
   -0.9774   -3.1154    1.0453 H   0  0  0  0  0  0  0  0  0  0  0  0
   -2.1265   -3.2627    2.1033 H   0  0  0  0  0  0  0  0  0  0  0  0
    3.7991    0.7131   -0.9408 O   0  0  0  0  0  0  0  0  0  0  0  0
    2.8902    0.4284   -1.1782 H   0  0  0  0  0  0  0  0  0  0  0  0
    4.2412    0.8187   -1.7898 H   0  0  0  0  0  0  0  0  0  0  0  0
   -3.7276    2.4676    1.7240 O   0  0  0  0  0  0  0  0  0  0  0  0
   -3.7794    3.2318    1.1429 H   0  0  0  0  0  0  0  0  0  0  0  0
   -3.7288    1.6944    1.1266 H   0  0  0  0  0  0  0  0  0  0  0  0
   -3.6756    3.2682   -1.0736 O   0  0  0  0  0  0  0  0  0  0  0  0
   -3.7030    2.3006   -0.9601 H   0  0  0  0  0  0  0  0  0  0  0  0
   -4.3699    3.4848   -1.6989 H   0  0  0  0  0  0  0  0  0  0  0  0
    3.5462   -1.3545   -4.7407 O   0  0  0  0  0  0  0  0  0  0  0  0
    3.5955   -0.4212   -4.4588 H   0  0  0  0  0  0  0  0  0  0  0  0
    3.4915   -1.8570   -3.9098 H   0  0  0  0  0  0  0  0  0  0  0  0
    0.6243   -3.3055   -3.4469 O   0  0  0  0  0  0  0  0  0  0  0  0
    1.4653   -2.9701   -3.0658 H   0  0  0  0  0  0  0  0  0  0  0  0
    0.4156   -4.0806   -2.8809 H   0  0  0  0  0  0  0  0  0  0  0  0
    1.1339   -2.0686   -5.8637 O   0  0  0  0  0  0  0  0  0  0  0  0
    0.8474   -2.6377   -5.1258 H   0  0  0  0  0  0  0  0  0  0  0  0
    2.0318   -1.7765   -5.6077 H   0  0  0  0  0  0  0  0  0  0  0  0
    0.3354    4.0456    5.4421 O   0  0  0  0  0  0  0  0  0  0  0  0
   -0.5152    3.6149    5.7102 H   0  0  0  0  0  0  0  0  0  0  0  0
    0.5754    4.6513    6.1431 H   0  0  0  0  0  0  0  0  0  0  0  0
   -1.4370   -1.8018   -2.4982 O   0  0  0  0  0  0  0  0  0  0  0  0
   -1.5769   -1.0449   -3.0907 H   0  0  0  0  0  0  0  0  0  0  0  0
   -0.7179   -2.3386   -2.8906 H   0  0  0  0  0  0  0  0  0  0  0  0
    0.7142    5.2366    0.3407 O   0  0  0  0  0  0  0  0  0  0  0  0
    0.4689    4.7706    1.1689 H   0  0  0  0  0  0  0  0  0  0  0  0
    0.0245    5.0333   -0.3105 H   0  0  0  0  0  0  0  0  0  0  0  0
    4.3958    2.7556    0.8553 O   0  0  0  0  0  0  0  0  0  0  0  0
    4.1219    3.6073    0.4683 H   0  0  0  0  0  0  0  0  0  0  0  0
    4.2136    2.0867    0.1705 H   0  0  0  0  0  0  0  0  0  0  0  0
    0.3594   -5.8049    1.2426 O   0  0  0  0  0  0  0  0  0  0  0  0
    0.3989   -5.6615    0.2798 H   0  0  0  0  0  0  0  0  0  0  0  0
   -0.2983   -5.1431    1.5383 H   0  0  0  0  0  0  0  0  0  0  0  0
    3.5629    1.2465   -3.7654 O   0  0  0  0  0  0  0  0  0  0  0  0
    2.6167    1.3671   -3.4947 H   0  0  0  0  0  0  0  0  0  0  0  0
    3.7575    1.9801   -4.3533 H   0  0  0  0  0  0  0  0  0  0  0  0
   -0.0611   -4.8131   -1.3358 O   0  0  0  0  0  0  0  0  0  0  0  0
   -0.9810   -5.0170   -1.5936 H   0  0  0  0  0  0  0  0  0  0  0  0
   -0.0868   -3.9231   -0.9027 H   0  0  0  0  0  0  0  0  0  0  0  0
   -2.6534   -5.3342   -2.0579 O   0  0  0  0  0  0  0  0  0  0  0  0
   -3.1913   -4.5966   -2.3789 H   0  0  0  0  0  0  0  0  0  0  0  0
   -2.9180   -5.4677   -1.1231 H   0  0  0  0  0  0  0  0  0  0  0  0
   -0.5604    2.4272   -6.7970 O   0  0  0  0  0  0  0  0  0  0  0  0
   -0.5433    1.4534   -6.7565 H   0  0  0  0  0  0  0  0  0  0  0  0
   -1.1228    2.6571   -7.5422 H   0  0  0  0  0  0  0  0  0  0  0  0
   -1.5135   -0.5895    4.7882 O   0  0  0  0  0  0  0  0  0  0  0  0
   -1.0338   -1.3927    4.5008 H   0  0  0  0  0  0  0  0  0  0  0  0
   -0.8579    0.1201    4.7714 H   0  0  0  0  0  0  0  0  0  0  0  0
   -3.9482   -2.7834   -2.5413 O   0  0  0  0  0  0  0  0  0  0  0  0
   -2.9960   -2.5235   -2.5261 H   0  0  0  0  0  0  0  0  0  0  0  0
   -4.3886   -1.9613   -2.8285 H   0  0  0  0  0  0  0  0  0  0  0  0
    1.0653    1.2976    4.9936 O   0  0  0  0  0  0  0  0  0  0  0  0
    2.0233    1.3064    5.1922 H   0  0  0  0  0  0  0  0  0  0  0  0
    0.8103    2.2253    4.8866 H   0  0  0  0  0  0  0  0  0  0  0  0
   -4.0526    0.5626   -0.3365 O   0  0  0  0  0  0  0  0  0  0  0  0
   -4.8840    0.2251    0.0054 H   0  0  0  0  0  0  0  0  0  0  0  0
   -3.3817   -0.1594   -0.1453 H   0  0  0  0  0  0  0  0  0  0  0  0
   -2.2189   -4.0649    4.6972 O   0  0  0  0  0  0  0  0  0  0  0  0
   -2.8901   -3.6768    4.1082 H   0  0  0  0  0  0  0  0  0  0  0  0
   -1.3709   -3.7716    4.3206 H   0  0  0  0  0  0  0  0  0  0  0  0
    2.8349   -2.3368   -2.2141 O   0  0  0  0  0  0  0  0  0  0  0  0
    2.3699   -1.4970   -2.0316 H   0  0  0  0  0  0  0  0  0  0  0  0
    2.9651   -2.7449   -1.3405 H   0  0  0  0  0  0  0  0  0  0  0  0
   -3.3556   -0.1699    2.9000 O   0  0  0  0  0  0  0  0  0  0  0  0
   -4.0404    0.4174    3.2179 H   0  0  0  0  0  0  0  0  0  0  0  0
   -2.6986   -0.2498    3.6343 H   0  0  0  0  0  0  0  0  0  0  0  0
  1  2  1  0  0  0  0
  2  3  1  0  0  0  0
  3  4  1  0  0  0  0
  4  5  1  0  0  0  0
  5  6  4  0  0  0  0
  5  7  4  0  0  0  0
  1  8  1  0  0  0  0
  1  9  1  0  0  0  0
  2 10  1  0  0  0  0
  2 11  1  0  0  0  0
  3 12  1  0  0  0  0
  3 13  1  0  0  0  0
  4 14  1  0  0  0  0
  4 15  1  0  0  0  0
  1 16  1  0  0  0  0
 17 18  1  0  0  0  0
 17 19  1  0  0  0  0
 20 21  1  0  0  0  0
 20 22  1  0  0  0  0
 23 24  1  0  0  0  0
 23 25  1  0  0  0  0
 26 27  1  0  0  0  0
 26 28  1  0  0  0  0
 29 30  1  0  0  0  0
 29 31  1  0  0  0  0
 32 33  1  0  0  0  0
 32 34  1  0  0  0  0
 35 36  1  0  0  0  0
 35 37  1  0  0  0  0
 38 39  1  0  0  0  0
 38 40  1  0  0  0  0
 41 42  1  0  0  0  0
 41 43  1  0  0  0  0
 44 45  1  0  0  0  0
 44 46  1  0  0  0  0
 47 48  1  0  0  0  0
 47 49  1  0  0  0  0
 50 51  1  0  0  0  0
 50 52  1  0  0  0  0
 53 54  1  0  0  0  0
 53 55  1  0  0  0  0
 56 57  1  0  0  0  0
 56 58  1  0  0  0  0
 59 60  1  0  0  0  0
 59 61  1  0  0  0  0
 62 63  1  0  0  0  0
 62 64  1  0  0  0  0
 65 66  1  0  0  0  0
 65 67  1  0  0  0  0
 68 69  1  0  0  0  0
 68 70  1  0  0  0  0
 71 72  1  0  0  0  0
 71 73  1  0  0  0  0
 74 75  1  0  0  0  0
 74 76  1  0  0  0  0
 77 78  1  0  0  0  0
 77 79  1  0  0  0  0
 80 81  1  0  0  0  0
 80 82  1  0  0  0  0
 83 84  1  0  0  0  0
 83 85  1  0  0  0  0
 86 87  1  0  0  0  0
 86 88  1  0  0  0  0
 89 90  1  0  0  0  0
 89 91  1  0  0  0  0
 92 93  1  0  0  0  0
 92 94  1  0  0  0  0
 95 96  1  0  0  0  0
 95 97  1  0  0  0  0
 98 99  1  0  0  0  0
 98100  1  0  0  0  0
101102  1  0  0  0  0
101103  1  0  0  0  0
104105  1  0  0  0  0
104106  1  0  0  0  0
107108  1  0  0  0  0
107109  1  0  0  0  0
110111  1  0  0  0  0
110112  1  0  0  0  0
113114  1  0  0  0  0
113115  1  0  0  0  0
116117  1  0  0  0  0
116118  1  0  0  0  0
119120  1  0  0  0  0
119121  1  0  0  0  0
122123  1  0  0  0  0
122124  1  0  0  0  0
125126  1  0  0  0  0
125127  1  0  0  0  0
128129  1  0  0  0  0
128130  1  0  0  0  0
131132  1  0  0  0  0
131133  1  0  0  0  0
134135  1  0  0  0  0
134136  1  0  0  0  0
137138  1  0  0  0  0
137139  1  0  0  0  0
140141  1  0  0  0  0
140142  1  0  0  0  0
143144  1  0  0  0  0
143145  1  0  0  0  0
146147  1  0  0  0  0
146148  1  0  0  0  0
149150  1  0  0  0  0
149151  1  0  0  0  0
152153  1  0  0  0  0
152154  1  0  0  0  0
155156  1  0  0  0  0
155157  1  0  0  0  0
158159  1  0  0  0  0
158160  1  0  0  0  0
161162  1  0  0  0  0
161163  1  0  0  0  0
164165  1  0  0  0  0
164166  1  0  0  0  0
M  END
