          34
  Built with Packmol                                             
  C            0.000717       -0.522558        0.678044
  C            0.000155        0.093927        2.050368
  O           -0.000195       -0.630131        3.032262
  O           -0.000797        1.431559        2.216433
  C            0.000989        0.525311       -0.443260
  N           -0.000301       -0.116591       -1.756652
  H            0.902593       -1.162928        0.578888
  H           -0.902640       -1.160238        0.579017
  H           -0.902002        1.167413       -0.351037
  H            0.903666        1.168949       -0.351720
  H           -0.857069       -0.705532       -1.867523
  H            0.853228       -0.710069       -1.867795
  H            0.001656        0.620887       -2.497026
  O            0.726777       -3.335268        0.879245
  H            1.661580       -3.230462        0.569778
  H            0.797197       -3.885628        1.699463
  O           -0.590259        2.353113        6.376272
  H           -0.154556        1.747959        7.027857
  H            0.005013        2.335800        5.585092
  O           -1.711420       -0.401568        6.730779
  H           -1.949052       -1.262057        6.302176
  H           -0.725234       -0.351358        6.656415
  O            1.367405       -3.514873       -2.762530
  H            0.484576       -3.075271       -2.673233
  H            1.910866       -3.131362       -2.028921
  O           -2.219713       -2.344291       -3.269580
  H           -2.172040       -3.321762       -3.118291
  H           -2.566655       -1.977984       -2.417486
  O           -0.084170       -4.264819       -0.925786
  H            0.795019       -4.711021       -0.833370
  H           -0.638732       -4.657745       -0.205590
  O           -0.333599       -3.166806       -4.712768
  H           -1.241173       -3.092562       -5.101880
  H           -0.019475       -4.065445       -4.985508
