 xtb: 6.7.1 (edcfbbe)
          06092517533D

 34 26  0     0  0            999 V2000
    0.2389   -0.2739    0.6902 C   0  0  0  0  0  0  0  0  0  0  0  0
    0.5834    0.8972    1.6557 C   0  0  0  0  0  0  0  0  0  0  0  0
    1.0165    0.5761    2.7840 O   0  0  0  0  0  0  0  0  0  0  0  0
    0.3873    2.0620    1.2499 O   0  0  0  0  0  0  0  0  0  0  0  0
    0.2494    0.1615   -0.7643 C   0  0  0  0  0  0  0  0  0  0  0  0
   -0.3687   -0.8509   -1.6351 N   0  0  0  0  0  0  0  0  0  0  0  0
    0.9471   -1.0764    0.8934 H   0  0  0  0  0  0  0  0  0  0  0  0
   -0.7599   -0.6081    0.9801 H   0  0  0  0  0  0  0  0  0  0  0  0
   -0.2957    1.1053   -0.8263 H   0  0  0  0  0  0  0  0  0  0  0  0
    1.2781    0.3436   -1.0771 H   0  0  0  0  0  0  0  0  0  0  0  0
   -1.3364   -1.0694   -1.3065 H   0  0  0  0  0  0  0  0  0  0  0  0
    0.1780   -1.7472   -1.6278 H   0  0  0  0  0  0  0  0  0  0  0  0
   -0.4132   -0.5257   -2.6210 H   0  0  0  0  0  0  0  0  0  0  0  0
    0.8594   -3.2578   -2.0148 O   0  0  0  0  0  0  0  0  0  0  0  0
    0.4776   -3.2946   -2.9116 H   0  0  0  0  0  0  0  0  0  0  0  0
    0.4099   -3.9610   -1.5196 H   0  0  0  0  0  0  0  0  0  0  0  0
   -0.6845   -2.9795   -4.3259 O   0  0  0  0  0  0  0  0  0  0  0  0
   -0.6761   -2.0074   -4.4066 H   0  0  0  0  0  0  0  0  0  0  0  0
   -0.6328   -3.3349   -5.2164 H   0  0  0  0  0  0  0  0  0  0  0  0
   -0.4485   -0.2039   -4.3536 O   0  0  0  0  0  0  0  0  0  0  0  0
    0.3714    0.1472   -4.7127 H   0  0  0  0  0  0  0  0  0  0  0  0
   -1.1431    0.4473   -4.5570 H   0  0  0  0  0  0  0  0  0  0  0  0
   -2.9048   -1.6090   -0.9008 O   0  0  0  0  0  0  0  0  0  0  0  0
   -3.6987   -1.1427   -1.1720 H   0  0  0  0  0  0  0  0  0  0  0  0
   -2.8803   -2.4494   -1.4191 H   0  0  0  0  0  0  0  0  0  0  0  0
   -2.3170    1.7978   -4.7979 O   0  0  0  0  0  0  0  0  0  0  0  0
   -3.2667    1.6470   -4.8219 H   0  0  0  0  0  0  0  0  0  0  0  0
   -2.1757    2.6865   -4.4585 H   0  0  0  0  0  0  0  0  0  0  0  0
   -2.5138   -3.8113   -2.3899 O   0  0  0  0  0  0  0  0  0  0  0  0
   -1.9507   -4.3745   -1.8354 H   0  0  0  0  0  0  0  0  0  0  0  0
   -1.9375   -3.5212   -3.1234 H   0  0  0  0  0  0  0  0  0  0  0  0
   -0.6886   -5.2647   -0.7543 O   0  0  0  0  0  0  0  0  0  0  0  0
   -0.8249   -5.1540    0.1913 H   0  0  0  0  0  0  0  0  0  0  0  0
   -0.4955   -6.1945   -0.9101 H   0  0  0  0  0  0  0  0  0  0  0  0
  1  2  1  0  0  0  0
  2  3  4  0  0  0  0
  2  4  4  0  0  0  0
  1  5  1  0  0  0  0
  5  6  1  0  0  0  0
  1  7  1  0  0  0  0
  1  8  1  0  0  0  0
  5  9  1  0  0  0  0
  5 10  1  0  0  0  0
  6 11  1  0  0  0  0
  6 12  1  0  0  0  0
  6 13  1  0  0  0  0
 14 15  1  0  0  0  0
 14 16  1  0  0  0  0
 17 18  1  0  0  0  0
 17 19  1  0  0  0  0
 20 21  1  0  0  0  0
 20 22  1  0  0  0  0
 23 24  1  0  0  0  0
 23 25  1  0  0  0  0
 26 27  1  0  0  0  0
 26 28  1  0  0  0  0
 29 30  1  0  0  0  0
 29 31  1  0  0  0  0
 32 33  1  0  0  0  0
 32 34  1  0  0  0  0
M  END
