 xtb: 6.7.1 (edcfbbe)
          06092518083D

 37 29  0     0  0            999 V2000
    0.6444   -0.3246    1.0628 N   0  0  0  0  0  0  0  0  0  0  0  0
    0.6639    0.8680    0.1961 C   0  0  0  0  0  0  0  0  0  0  0  0
    0.0635    0.5580   -1.1728 C   0  0  0  0  0  0  0  0  0  0  0  0
    1.0102   -0.1781   -2.1281 C   0  0  0  0  0  0  0  0  0  0  0  0
    1.1755   -1.7016   -1.9479 C   0  0  0  0  0  0  0  0  0  0  0  0
    1.3197   -2.3856   -2.9752 O   0  0  0  0  0  0  0  0  0  0  0  0
    1.1962   -2.1777   -0.7783 O   0  0  0  0  0  0  0  0  0  0  0  0
    1.3889   -0.2977    1.8104 H   0  0  0  0  0  0  0  0  0  0  0  0
   -0.2729   -0.4631    1.4826 H   0  0  0  0  0  0  0  0  0  0  0  0
    0.0989    1.6737    0.6643 H   0  0  0  0  0  0  0  0  0  0  0  0
    1.6969    1.1930    0.0749 H   0  0  0  0  0  0  0  0  0  0  0  0
   -0.2106    1.5037   -1.6422 H   0  0  0  0  0  0  0  0  0  0  0  0
   -0.8511   -0.0246   -1.0510 H   0  0  0  0  0  0  0  0  0  0  0  0
    2.0176    0.2411   -2.0526 H   0  0  0  0  0  0  0  0  0  0  0  0
    0.6837   -0.0390   -3.1607 H   0  0  0  0  0  0  0  0  0  0  0  0
    0.8590   -1.1505    0.4392 H   0  0  0  0  0  0  0  0  0  0  0  0
    2.6966   -0.6123    2.7761 O   0  0  0  0  0  0  0  0  0  0  0  0
    3.0603   -1.3354    2.2323 H   0  0  0  0  0  0  0  0  0  0  0  0
    2.3819   -1.0389    3.5924 H   0  0  0  0  0  0  0  0  0  0  0  0
    3.2557   -2.7087    1.0288 O   0  0  0  0  0  0  0  0  0  0  0  0
    4.0571   -2.9003    0.5355 H   0  0  0  0  0  0  0  0  0  0  0  0
    2.5314   -2.6867    0.3797 H   0  0  0  0  0  0  0  0  0  0  0  0
   -0.9135    3.5684    1.5705 O   0  0  0  0  0  0  0  0  0  0  0  0
   -0.3586    4.0796    2.1688 H   0  0  0  0  0  0  0  0  0  0  0  0
   -1.7920    3.5306    1.9615 H   0  0  0  0  0  0  0  0  0  0  0  0
   -3.5973   -2.3138   -4.3706 O   0  0  0  0  0  0  0  0  0  0  0  0
   -3.3336   -3.0089   -3.7602 H   0  0  0  0  0  0  0  0  0  0  0  0
   -2.9210   -2.2675   -5.0535 H   0  0  0  0  0  0  0  0  0  0  0  0
   -5.2587   -0.0859   -3.5855 O   0  0  0  0  0  0  0  0  0  0  0  0
   -4.5976    0.6140   -3.5660 H   0  0  0  0  0  0  0  0  0  0  0  0
   -4.7948   -0.8850   -3.8784 H   0  0  0  0  0  0  0  0  0  0  0  0
    1.7746   -2.1431    4.9376 O   0  0  0  0  0  0  0  0  0  0  0  0
    2.3417   -2.3152    5.6953 H   0  0  0  0  0  0  0  0  0  0  0  0
    1.3888   -2.9840    4.6731 H   0  0  0  0  0  0  0  0  0  0  0  0
   -0.7034    3.8226   -1.2780 O   0  0  0  0  0  0  0  0  0  0  0  0
   -0.8183    3.7679   -0.3146 H   0  0  0  0  0  0  0  0  0  0  0  0
   -0.1287    4.5767   -1.4379 H   0  0  0  0  0  0  0  0  0  0  0  0
  1  2  1  0  0  0  0
  2  3  1  0  0  0  0
  3  4  1  0  0  0  0
  4  5  1  0  0  0  0
  5  6  2  0  0  0  0
  5  7  4  0  0  0  0
  1  8  1  0  0  0  0
  1  9  1  0  0  0  0
  2 10  1  0  0  0  0
  2 11  1  0  0  0  0
  3 12  1  0  0  0  0
  3 13  1  0  0  0  0
  4 14  1  0  0  0  0
  4 15  1  0  0  0  0
  1 16  1  0  0  0  0
 17 18  1  0  0  0  0
 17 19  1  0  0  0  0
 20 21  1  0  0  0  0
 20 22  1  0  0  0  0
 23 24  1  0  0  0  0
 23 25  1  0  0  0  0
 26 27  1  0  0  0  0
 26 28  1  0  0  0  0
 29 30  1  0  0  0  0
 29 31  1  0  0  0  0
 32 33  1  0  0  0  0
 32 34  1  0  0  0  0
 35 36  1  0  0  0  0
 35 37  1  0  0  0  0
M  END
