          34
  Built with Packmol                                             
  C            0.000717       -0.522558        0.678044
  C            0.000155        0.093927        2.050368
  O           -0.000195       -0.630131        3.032262
  O           -0.000797        1.431559        2.216433
  C            0.000989        0.525311       -0.443260
  N           -0.000301       -0.116591       -1.756652
  H            0.902593       -1.162928        0.578888
  H           -0.902640       -1.160238        0.579017
  H           -0.902002        1.167413       -0.351037
  H            0.903666        1.168949       -0.351720
  H           -0.857069       -0.705532       -1.867523
  H            0.853228       -0.710069       -1.867795
  H            0.001656        0.620887       -2.497026
  O           -1.696103       -2.943460        3.890931
  H           -2.616164       -3.309613        3.885412
  H           -1.234053       -3.422451        3.157657
  O           -0.457742       -3.905857        0.824503
  H            0.354745       -3.435543        0.509416
  H           -1.129812       -3.741907        0.115944
  O            2.935485        2.524767       -0.734955
  H            2.923250        2.877450       -1.660199
  H            3.105771        3.319211       -0.168850
  O           -2.295881        3.810785       -0.431520
  H           -2.326137        3.203885       -1.213419
  H           -2.827104        3.346682        0.263479
  O            0.947164       -3.470616        3.439880
  H            0.828316       -3.966694        2.591120
  H            1.926474       -3.347854        3.520461
  O           -2.196525       -3.251076       -2.140114
  H           -2.851384       -3.042744       -2.853114
  H           -2.751363       -3.503586       -1.359725
  O           -0.098302        3.688431       -0.129981
  H           -0.143328        3.900585       -1.096197
  H           -0.040678        4.571004        0.315394
