 xtb: 6.7.1 (edcfbbe)
          06092518013D

 37 29  0     0  0            999 V2000
   -0.7317   -0.8816    1.6542 N   0  0  0  0  0  0  0  0  0  0  0  0
    0.1131   -1.2860    0.5116 C   0  0  0  0  0  0  0  0  0  0  0  0
    0.2704   -0.1572   -0.4997 C   0  0  0  0  0  0  0  0  0  0  0  0
    1.1262   -0.5854   -1.6864 C   0  0  0  0  0  0  0  0  0  0  0  0
    1.3837    0.5823   -2.6681 C   0  0  0  0  0  0  0  0  0  0  0  0
    1.5393    1.7248   -2.1969 O   0  0  0  0  0  0  0  0  0  0  0  0
    1.4401    0.2948   -3.8921 O   0  0  0  0  0  0  0  0  0  0  0  0
   -0.2871   -0.1298    2.1840 H   0  0  0  0  0  0  0  0  0  0  0  0
   -1.6420   -0.5563    1.3244 H   0  0  0  0  0  0  0  0  0  0  0  0
   -0.3480   -2.1484    0.0293 H   0  0  0  0  0  0  0  0  0  0  0  0
    1.0904   -1.5857    0.8894 H   0  0  0  0  0  0  0  0  0  0  0  0
    0.7467    0.7186   -0.0535 H   0  0  0  0  0  0  0  0  0  0  0  0
   -0.7037    0.1555   -0.8822 H   0  0  0  0  0  0  0  0  0  0  0  0
    0.6692   -1.4009   -2.2469 H   0  0  0  0  0  0  0  0  0  0  0  0
    2.1133   -0.9122   -1.3488 H   0  0  0  0  0  0  0  0  0  0  0  0
   -0.8694   -1.7406    2.2833 H   0  0  0  0  0  0  0  0  0  0  0  0
    0.4118   -2.0505   -4.7901 O   0  0  0  0  0  0  0  0  0  0  0  0
    0.7803   -1.1893   -4.4910 H   0  0  0  0  0  0  0  0  0  0  0  0
    0.7510   -2.1760   -5.6813 H   0  0  0  0  0  0  0  0  0  0  0  0
   -2.1721   -3.2226    5.4525 O   0  0  0  0  0  0  0  0  0  0  0  0
   -1.7291   -3.1924    4.5828 H   0  0  0  0  0  0  0  0  0  0  0  0
   -2.7653   -3.9783    5.4235 H   0  0  0  0  0  0  0  0  0  0  0  0
   -1.4519   -4.3112    0.5189 O   0  0  0  0  0  0  0  0  0  0  0  0
   -1.1172   -5.1495    0.1917 H   0  0  0  0  0  0  0  0  0  0  0  0
   -2.2140   -4.0888   -0.0387 H   0  0  0  0  0  0  0  0  0  0  0  0
   -0.9005   -3.1782    2.9645 O   0  0  0  0  0  0  0  0  0  0  0  0
   -1.1928   -3.7024    2.1943 H   0  0  0  0  0  0  0  0  0  0  0  0
    0.0643   -3.3191    3.0249 H   0  0  0  0  0  0  0  0  0  0  0  0
   -0.4284   -2.9640    7.6185 O   0  0  0  0  0  0  0  0  0  0  0  0
   -0.8138   -2.2698    8.1602 H   0  0  0  0  0  0  0  0  0  0  0  0
   -1.0282   -3.0648    6.8535 H   0  0  0  0  0  0  0  0  0  0  0  0
    1.8547   -3.2544    2.9434 O   0  0  0  0  0  0  0  0  0  0  0  0
    2.3493   -4.0249    2.6517 H   0  0  0  0  0  0  0  0  0  0  0  0
    2.2925   -2.9175    3.7308 H   0  0  0  0  0  0  0  0  0  0  0  0
   -3.4885   -3.6145   -1.2962 O   0  0  0  0  0  0  0  0  0  0  0  0
   -3.2575   -3.5101   -2.2235 H   0  0  0  0  0  0  0  0  0  0  0  0
   -4.3234   -3.1575   -1.1548 H   0  0  0  0  0  0  0  0  0  0  0  0
  1  2  1  0  0  0  0
  2  3  1  0  0  0  0
  3  4  1  0  0  0  0
  4  5  1  0  0  0  0
  5  6  2  0  0  0  0
  5  7  4  0  0  0  0
  1  8  1  0  0  0  0
  1  9  1  0  0  0  0
  2 10  1  0  0  0  0
  2 11  1  0  0  0  0
  3 12  1  0  0  0  0
  3 13  1  0  0  0  0
  4 14  1  0  0  0  0
  4 15  1  0  0  0  0
  1 16  1  0  0  0  0
 17 18  1  0  0  0  0
 17 19  1  0  0  0  0
 20 21  1  0  0  0  0
 20 22  1  0  0  0  0
 23 24  1  0  0  0  0
 23 25  1  0  0  0  0
 26 27  1  0  0  0  0
 26 28  1  0  0  0  0
 29 30  1  0  0  0  0
 29 31  1  0  0  0  0
 32 33  1  0  0  0  0
 32 34  1  0  0  0  0
 35 36  1  0  0  0  0
 35 37  1  0  0  0  0
M  END
