          88
  Built with Packmol                                             
  C            0.000717       -0.522558        0.678044
  C            0.000155        0.093927        2.050368
  O           -0.000195       -0.630131        3.032262
  O           -0.000797        1.431559        2.216433
  C            0.000989        0.525311       -0.443260
  N           -0.000301       -0.116591       -1.756652
  H            0.902593       -1.162928        0.578888
  H           -0.902640       -1.160238        0.579017
  H           -0.902002        1.167413       -0.351037
  H            0.903666        1.168949       -0.351720
  H           -0.857069       -0.705532       -1.867523
  H            0.853228       -0.710069       -1.867795
  H            0.001656        0.620887       -2.497026
  O            3.582565        5.597481        1.184424
  H            2.819613        5.402274        0.584082
  H            3.917254        6.478933        0.881705
  O            0.544357       -7.181819       -5.119728
  H            1.240731       -6.519092       -5.357356
  H            0.824319       -7.529807       -4.235908
  O            5.622825        4.279409        2.399272
  H            5.364922        5.201526        2.651852
  H            5.020375        4.050411        1.647456
  O            5.444384       -2.195503       -2.477581
  H            6.224678       -2.759460       -2.709324
  H            4.720857       -2.842110       -2.280047
  O            6.989789       -4.528599        6.309895
  H            7.303699       -3.591944        6.240983
  H            6.105366       -4.527262        5.864466
  O           -6.707181       -2.824521        3.525789
  H           -6.883437       -1.916866        3.880343
  H           -6.081597       -2.679277        2.772024
  O           -6.070201       -6.188041       -1.442547
  H           -6.473235       -5.835335       -0.609616
  H           -6.720825       -6.859992       -1.767790
  O            1.161746       -4.073470       -6.847277
  H            0.924187       -5.032242       -6.917514
  H            1.787806       -3.917315       -7.598460
  O            2.144307        6.900025       -4.975976
  H            1.196724        7.002337       -4.707219
  H            2.641188        7.503287       -4.367867
  O           -6.631470        0.781178       -3.501529
  H           -6.943155        1.709389       -3.353586
  H           -5.721209        0.882179       -3.878141
  O            2.540862       -1.193410       -4.836601
  H            1.695142       -0.709488       -4.660003
  H            3.005953       -0.641008       -5.514211
  O           -1.670547       -5.570863        6.483683
  H           -2.344959       -4.903155        6.200937
  H           -1.558565       -5.414368        7.455064
  O            4.247752        6.885735       -1.525654
  H            3.896902        7.499742       -2.218842
  H            4.709480        7.478078       -0.880247
  O            4.741573       -5.334885       -6.922874
  H            4.650162       -6.320871       -6.913618
  H            4.190509       -5.027457       -6.159703
  O            4.862691       -5.693457       -3.482822
  H            4.865171       -6.681534       -3.548472
  H            5.339569       -5.389600       -4.295762
  O            3.904894       -2.830123       -4.329452
  H            3.821692       -3.816560       -4.354550
  H            4.657934       -2.629037       -4.940278
  O            1.169627        5.990759        3.733851
  H            0.484524        5.553878        4.299872
  H            1.784597        5.257827        3.478439
  O           -3.370159       -5.326427       -5.140039
  H           -3.642365       -6.263921       -5.306233
  H           -3.172105       -5.293773       -4.170338
  O            4.036679        4.852107        6.549386
  H            4.021467        5.580979        5.879218
  H            4.305653        4.048943        6.036362
  O           -0.814441       -5.061634       -5.618029
  H           -1.314387       -5.907918       -5.497750
  H           -1.099631       -4.494798       -4.857782
  O            3.659130        5.715922       -3.636228
  H            4.345139        5.011629       -3.518017
  H            3.047265        5.597953       -2.866607
  O           -6.908034       -6.875766       -4.175793
  H           -7.182715       -6.140873       -4.780023
  H           -6.405022       -7.500011       -4.757094
  O            3.364575        0.458787        6.480340
  H            3.757865       -0.018075        7.253992
  H            3.752004        1.368925        6.526817
  O            6.667673        4.470505       -3.601276
  H            7.157229        5.198469       -3.141913
  H            7.165062        3.648081       -3.362874
  O            6.948910       -5.806372       -2.787470
  H            7.372437       -6.471787       -3.386185
  H            7.500258       -4.990682       -2.893664
