          88
  Built with Packmol                                             
  C            0.000717       -0.522558        0.678044
  C            0.000155        0.093927        2.050368
  O           -0.000195       -0.630131        3.032262
  O           -0.000797        1.431559        2.216433
  C            0.000989        0.525311       -0.443260
  N           -0.000301       -0.116591       -1.756652
  H            0.902593       -1.162928        0.578888
  H           -0.902640       -1.160238        0.579017
  H           -0.902002        1.167413       -0.351037
  H            0.903666        1.168949       -0.351720
  H           -0.857069       -0.705532       -1.867523
  H            0.853228       -0.710069       -1.867795
  H            0.001656        0.620887       -2.497026
  O            2.763659       -2.840958       -0.817649
  H            1.793529       -2.977574       -0.961853
  H            3.065003       -2.339296       -1.616486
  O           -5.140399        5.689238        3.918841
  H           -4.701573        5.749428        4.804515
  H           -4.628020        6.312940        3.345189
  O            1.861576       -6.569159        6.549626
  H            2.662980       -6.160156        6.136009
  H            1.140612       -5.906591        6.401882
  O            2.227918       -6.710381       -6.243298
  H            1.684961       -7.499594       -6.494201
  H            3.035585       -7.090911       -5.814949
  O           -0.128657       -4.453345       -5.338753
  H            0.077850       -4.054055       -6.221098
  H           -0.597498       -3.734493       -4.844736
  O            4.277541       -4.920233       -2.166029
  H            3.619688       -5.645700       -2.019272
  H            4.315079       -4.440532       -1.300529
  O            2.144364       -7.387520       -0.741363
  H            2.611745       -7.566114       -1.595922
  H            1.984804       -6.410208       -0.745384
  O            5.764556       -2.127927        4.055541
  H            6.446890       -2.463805        3.421336
  H            4.900000       -2.401464        3.657628
  O           -5.372975       -4.237322       -1.696658
  H           -5.813590       -5.108320       -1.863489
  H           -6.044773       -3.711768       -1.193575
  O           -4.115969       -6.937908       -6.633268
  H           -3.682512       -6.051886       -6.545571
  H           -4.199935       -7.266214       -5.702796
  O           -1.449655        6.811425       -0.929481
  H           -0.999482        6.176486       -0.317266
  H           -2.405106        6.553361       -0.895864
  O           -1.949625       -5.798372        1.818978
  H           -2.721011       -5.754114        1.199611
  H           -1.467093       -4.945598        1.675615
  O            2.538813        5.344465        6.353021
  H            3.307363        5.917258        6.601715
  H            2.109506        5.819545        5.597635
  O            0.486023        6.112144        3.036561
  H           -0.190807        6.766652        3.343370
  H            0.132585        5.234403        3.328564
  O            5.278122        2.380456       -2.299255
  H            4.342525        2.239193       -2.591340
  H            5.219905        2.469547       -1.314731
  O            6.117230        5.025276       -4.188004
  H            5.314301        4.453698       -4.092009
  H            6.034827        5.692910       -3.461308
  O           -1.230479       -5.301879       -3.372942
  H           -2.108313       -5.655788       -3.081797
  H           -0.902916       -4.781567       -2.596675
  O           -2.143424        5.847973       -3.998922
  H           -2.306181        5.627759       -3.047277
  H           -2.753928        5.250439       -4.499772
  O            3.620698       -6.898821        3.814200
  H            2.660489       -6.875600        4.055177
  H            3.662302       -7.484650        3.016900
  O            4.600472        5.288790        1.546119
  H            4.922398        6.211798        1.704332
  H            4.087931        5.346278        0.700773
  O            4.893327        4.038321        6.099231
  H            5.607733        4.721571        6.040889
  H            4.235320        4.307906        5.410055
  O            3.321758        3.155300       -5.596756
  H            3.419475        4.077384       -5.249158
  H            3.594479        2.575371       -4.841827
  O            6.385903        1.195388        6.137265
  H            7.297872        1.559728        6.264459
  H            6.310441        0.474430        6.811904
  O            5.732647       -1.925191       -6.674333
  H            6.092548       -1.040722       -6.936625
  H            6.535574       -2.478874       -6.502994
  O           -6.692108        4.064490        5.211168
  H           -6.776602        3.096533        5.020037
  H           -7.492666        4.470718        4.793198
