          34
  Built with Packmol                                             
  H            1.511317       -0.306828       -0.555014
  C            0.423564       -0.532721       -0.609717
  H            0.153518        0.482840       -2.377127
  H            0.306225       -1.519929       -1.108019
  N           -0.266872        0.473091       -1.420552
  H            0.312435       -1.513062        1.312585
  C           -0.165166       -0.646649        0.806799
  O            0.750464        1.631323        1.241066
  C            0.056943        0.562514        1.678499
  H           -0.170369        1.427689       -1.011410
  O           -0.378051        0.562370        2.818531
  H           -1.279945        0.228297       -1.503809
  H           -1.254063       -0.848936        0.728169
  O            2.190075       -2.238984        2.462527
  H            2.226845       -2.403549        3.438323
  H            3.074713       -2.532373        2.127936
  O            0.787130       -2.545156        6.110771
  H            1.523339       -2.293077        5.498347
  H           -0.023321       -2.151854        5.699559
  O            3.154791       -2.527028       -1.636268
  H            3.371332       -1.614521       -1.954155
  H            3.227241       -2.469985       -0.650312
  O           -3.235164       -1.478592        0.083101
  H           -3.581341       -0.961692       -0.687344
  H           -3.996630       -1.522529        0.714649
  O           -3.219222        1.805868        0.170359
  H           -4.147273        1.509115       -0.006474
  H           -2.842110        1.989005       -0.726781
  O            1.229232       -3.732797       -1.744784
  H            0.663318       -4.488082       -2.044611
  H            1.713618       -4.083736       -0.955592
  O            1.690604        0.183790       -5.649053
  H            0.955750       -0.182299       -6.202748
  H            1.633011       -0.317874       -4.797214
