 xtb: 6.7.1 (edcfbbe)
          06092517573D

 34 26  0     0  0            999 V2000
    1.3752   -0.5524    0.1125 H   0  0  0  0  0  0  0  0  0  0  0  0
    0.3057   -0.4226   -0.0590 C   0  0  0  0  0  0  0  0  0  0  0  0
    0.7698    0.6694   -1.7709 H   0  0  0  0  0  0  0  0  0  0  0  0
   -0.0910   -1.3464   -0.4817 H   0  0  0  0  0  0  0  0  0  0  0  0
    0.1024    0.6971   -1.0019 N   0  0  0  0  0  0  0  0  0  0  0  0
   -0.2383   -0.8886    1.9861 H   0  0  0  0  0  0  0  0  0  0  0  0
   -0.3840   -0.0925    1.2596 C   0  0  0  0  0  0  0  0  0  0  0  0
    0.3843    2.1816    1.1202 O   0  0  0  0  0  0  0  0  0  0  0  0
    0.1293    1.2214    1.8981 C   0  0  0  0  0  0  0  0  0  0  0  0
    0.2442    1.5541   -0.3915 H   0  0  0  0  0  0  0  0  0  0  0  0
    0.2444    1.2604    3.1357 O   0  0  0  0  0  0  0  0  0  0  0  0
   -0.8663    0.7022   -1.3744 H   0  0  0  0  0  0  0  0  0  0  0  0
   -1.4597    0.0285    1.1084 H   0  0  0  0  0  0  0  0  0  0  0  0
    3.4478   -3.4682    2.1177 O   0  0  0  0  0  0  0  0  0  0  0  0
    2.8254   -4.0490    2.5675 H   0  0  0  0  0  0  0  0  0  0  0  0
    3.7347   -2.8105    2.7581 H   0  0  0  0  0  0  0  0  0  0  0  0
   -0.0180   -2.9089    6.3065 O   0  0  0  0  0  0  0  0  0  0  0  0
    0.3507   -2.0255    6.3992 H   0  0  0  0  0  0  0  0  0  0  0  0
   -0.9334   -2.8008    6.0278 H   0  0  0  0  0  0  0  0  0  0  0  0
    2.9409   -2.5757   -0.5015 O   0  0  0  0  0  0  0  0  0  0  0  0
    3.7889   -2.5476   -0.9541 H   0  0  0  0  0  0  0  0  0  0  0  0
    3.1188   -2.9282    0.3868 H   0  0  0  0  0  0  0  0  0  0  0  0
   -3.5347   -0.3771    0.1457 O   0  0  0  0  0  0  0  0  0  0  0  0
   -3.2411    0.0098   -0.6958 H   0  0  0  0  0  0  0  0  0  0  0  0
   -3.9522   -1.2163   -0.0726 H   0  0  0  0  0  0  0  0  0  0  0  0
   -2.4515    0.7998   -2.2056 O   0  0  0  0  0  0  0  0  0  0  0  0
   -2.7400    1.7080   -2.3409 H   0  0  0  0  0  0  0  0  0  0  0  0
   -2.5218    0.3442   -3.0525 H   0  0  0  0  0  0  0  0  0  0  0  0
    0.4685   -3.2945   -1.6670 O   0  0  0  0  0  0  0  0  0  0  0  0
    0.2807   -4.1811   -1.3480 H   0  0  0  0  0  0  0  0  0  0  0  0
    1.3480   -3.0627   -1.3210 H   0  0  0  0  0  0  0  0  0  0  0  0
    0.6639   -0.3726   -6.3390 O   0  0  0  0  0  0  0  0  0  0  0  0
    0.7542   -1.2545   -5.9642 H   0  0  0  0  0  0  0  0  0  0  0  0
    1.5499   -0.0569   -6.5382 H   0  0  0  0  0  0  0  0  0  0  0  0
  1  2  1  0  0  0  0
  2  4  1  0  0  0  0
  2  5  1  0  0  0  0
  3  5  1  0  0  0  0
  2  7  1  0  0  0  0
  6  7  1  0  0  0  0
  7  9  1  0  0  0  0
  8  9  4  0  0  0  0
  5 10  1  0  0  0  0
  9 11  2  0  0  0  0
  5 12  1  0  0  0  0
  7 13  1  0  0  0  0
 14 15  1  0  0  0  0
 14 16  1  0  0  0  0
 17 18  1  0  0  0  0
 17 19  1  0  0  0  0
 20 21  1  0  0  0  0
 20 22  1  0  0  0  0
 23 24  1  0  0  0  0
 23 25  1  0  0  0  0
 26 27  1  0  0  0  0
 26 28  1  0  0  0  0
 29 30  1  0  0  0  0
 29 31  1  0  0  0  0
 32 33  1  0  0  0  0
 32 34  1  0  0  0  0
M  END
